BEGIN Configuration File: /tmp/bs_1138183_483760.cfg
topology = mesh;
k = 4;
n = 2;
routing_function = adaptive_xy_yx;
num_vcs = 4;
vc_buf_size = 4;
wait_for_tail_credit = 1;
vc_allocator = islip;
sw_allocator = islip;
alloc_iters = 1;
credit_delay = 2;
routing_delay = 1;
vc_alloc_delay = 1;
sw_alloc_delay = 1;
input_speedup = 2;
output_speedup = 1;
internal_speedup = 1.0;
traffic = uniform;
packet_size = 1;
sim_type = latency;
injection_rate = 0.05;
warmup_periods = 3;
sample_period = 1000;
sim_count = 100;
seed = 2;

END Configuration File: /tmp/bs_1138183_483760.cfg
Class 0:
Packet latency average = 19.6886
	minimum = 7
	maximum = 41
Network latency average = 19.6886
	minimum = 7
	maximum = 41
Slowest packet = 250
Flit latency average = 19.6886
	minimum = 7
	maximum = 41
Slowest flit = 250
Fragmentation average = 0
	minimum = 0
	maximum = 0
Injected packet rate average = 0.04975
	minimum = 0.035 (at node 8)
	maximum = 0.064 (at node 10)
Accepted packet rate average = 0.048375
	minimum = 0.038 (at node 2)
	maximum = 0.057 (at node 7)
Injected flit rate average = 0.04975
	minimum = 0.035 (at node 8)
	maximum = 0.064 (at node 10)
Accepted flit rate average= 0.048375
	minimum = 0.038 (at node 2)
	maximum = 0.057 (at node 7)
Injected packet length average = 1
Accepted packet length average = 1
Total in-flight flits = 22 (0 measured)
latency change    = 1
throughput change = 1
Class 0:
Packet latency average = 19.6913
	minimum = 7
	maximum = 41
Network latency average = 19.6913
	minimum = 7
	maximum = 41
Slowest packet = 250
Flit latency average = 19.6913
	minimum = 7
	maximum = 41
Slowest flit = 250
Fragmentation average = 0
	minimum = 0
	maximum = 0
Injected packet rate average = 0.0495
	minimum = 0.039 (at node 1)
	maximum = 0.067 (at node 10)
Accepted packet rate average = 0.0490937
	minimum = 0.042 (at node 2)
	maximum = 0.0555 (at node 7)
Injected flit rate average = 0.0495
	minimum = 0.039 (at node 1)
	maximum = 0.067 (at node 10)
Accepted flit rate average= 0.0490937
	minimum = 0.042 (at node 2)
	maximum = 0.0555 (at node 7)
Injected packet length average = 1
Accepted packet length average = 1
Total in-flight flits = 13 (0 measured)
latency change    = 0.000134524
throughput change = 0.0146404
Class 0:
Packet latency average = 20.1123
	minimum = 7
	maximum = 38
Network latency average = 20.1123
	minimum = 7
	maximum = 38
Slowest packet = 2018
Flit latency average = 20.1123
	minimum = 7
	maximum = 38
Slowest flit = 2018
Fragmentation average = 0
	minimum = 0
	maximum = 0
Injected packet rate average = 0.0475625
	minimum = 0.04 (at node 6)
	maximum = 0.059 (at node 10)
Accepted packet rate average = 0.0473125
	minimum = 0.035 (at node 9)
	maximum = 0.064 (at node 11)
Injected flit rate average = 0.0475625
	minimum = 0.04 (at node 6)
	maximum = 0.059 (at node 10)
Accepted flit rate average= 0.0473125
	minimum = 0.035 (at node 9)
	maximum = 0.064 (at node 11)
Injected packet length average = 1
Accepted packet length average = 1
Total in-flight flits = 17 (0 measured)
latency change    = 0.0209328
throughput change = 0.0376486
Warmed up ...Time used is 3000 cycles
Class 0:
Packet latency average = 19.3033
	minimum = 7
	maximum = 41
Network latency average = 19.3033
	minimum = 7
	maximum = 41
Slowest packet = 2908
Flit latency average = 19.3635
	minimum = 7
	maximum = 41
Slowest flit = 2908
Fragmentation average = 0
	minimum = 0
	maximum = 0
Injected packet rate average = 0.053625
	minimum = 0.037 (at node 1)
	maximum = 0.066 (at node 12)
Accepted packet rate average = 0.0538125
	minimum = 0.036 (at node 12)
	maximum = 0.07 (at node 7)
Injected flit rate average = 0.053625
	minimum = 0.037 (at node 1)
	maximum = 0.066 (at node 12)
Accepted flit rate average= 0.0538125
	minimum = 0.036 (at node 12)
	maximum = 0.07 (at node 7)
Injected packet length average = 1
Accepted packet length average = 1
Total in-flight flits = 14 (14 measured)
latency change    = 0.0419082
throughput change = 0.12079
Class 0:
Packet latency average = 19.3426
	minimum = 7
	maximum = 41
Network latency average = 19.3426
	minimum = 7
	maximum = 41
Slowest packet = 2908
Flit latency average = 19.3731
	minimum = 7
	maximum = 41
Slowest flit = 2908
Fragmentation average = 0
	minimum = 0
	maximum = 0
Injected packet rate average = 0.0524688
	minimum = 0.0415 (at node 1)
	maximum = 0.0585 (at node 12)
Accepted packet rate average = 0.0523438
	minimum = 0.0445 (at node 13)
	maximum = 0.062 (at node 7)
Injected flit rate average = 0.0524688
	minimum = 0.0415 (at node 1)
	maximum = 0.0585 (at node 12)
Accepted flit rate average= 0.0523438
	minimum = 0.0445 (at node 13)
	maximum = 0.062 (at node 7)
Injected packet length average = 1
Accepted packet length average = 1
Total in-flight flits = 21 (21 measured)
latency change    = 0.00202992
throughput change = 0.0280597
Class 0:
Packet latency average = 19.4885
	minimum = 7
	maximum = 41
Network latency average = 19.4885
	minimum = 7
	maximum = 41
Slowest packet = 2908
Flit latency average = 19.508
	minimum = 7
	maximum = 41
Slowest flit = 2908
Fragmentation average = 0
	minimum = 0
	maximum = 0
Injected packet rate average = 0.0521042
	minimum = 0.0456667 (at node 2)
	maximum = 0.0576667 (at node 10)
Accepted packet rate average = 0.0521667
	minimum = 0.0473333 (at node 9)
	maximum = 0.0596667 (at node 7)
Injected flit rate average = 0.0521042
	minimum = 0.0456667 (at node 2)
	maximum = 0.0576667 (at node 10)
Accepted flit rate average= 0.0521667
	minimum = 0.0473333 (at node 9)
	maximum = 0.0596667 (at node 7)
Injected packet length average = 1
Accepted packet length average = 1
Total in-flight flits = 14 (14 measured)
latency change    = 0.00748948
throughput change = 0.00339457
Class 0:
Packet latency average = 19.4787
	minimum = 7
	maximum = 41
Network latency average = 19.4787
	minimum = 7
	maximum = 41
Slowest packet = 2908
Flit latency average = 19.4935
	minimum = 7
	maximum = 41
Slowest flit = 2908
Fragmentation average = 0
	minimum = 0
	maximum = 0
Injected packet rate average = 0.0516719
	minimum = 0.04625 (at node 2)
	maximum = 0.0545 (at node 10)
Accepted packet rate average = 0.0516406
	minimum = 0.04575 (at node 9)
	maximum = 0.05725 (at node 0)
Injected flit rate average = 0.0516719
	minimum = 0.04625 (at node 2)
	maximum = 0.0545 (at node 10)
Accepted flit rate average= 0.0516406
	minimum = 0.04575 (at node 9)
	maximum = 0.05725 (at node 0)
Injected packet length average = 1
Accepted packet length average = 1
Total in-flight flits = 19 (19 measured)
latency change    = 0.000504651
throughput change = 0.0101866
Draining all recorded packets ...
Draining remaining packets ...
Time taken is 7068 cycles
Class 0:
Packet latency average = 19.8833
	minimum = 7
	maximum = 40
Network latency average = 19.8833
	minimum = 7
	maximum = 40
Slowest packet = 6126
Flit latency average = 19.8833
	minimum = 7
	maximum = 40
Slowest flit = 6126
Fragmentation average = 0
	minimum = 0
	maximum = 0
Injected packet rate average = 0.049875
	minimum = 0.033 (at node 9)
	maximum = 0.058 (at node 4)
Accepted packet rate average = 0.04875
	minimum = 0.035 (at node 14)
	maximum = 0.073 (at node 10)
Injected flit rate average = 0.049875
	minimum = 0.033 (at node 9)
	maximum = 0.058 (at node 4)
Accepted flit rate average= 0.04875
	minimum = 0.035 (at node 14)
	maximum = 0.073 (at node 10)
Injected packet length average = 1
Accepted packet length average = 1
Total in-flight flits = 18 (0 measured)
latency change    = 1
throughput change = 1
Class 0:
Packet latency average = 20.007
	minimum = 7
	maximum = 43
Network latency average = 20.007
	minimum = 7
	maximum = 43
Slowest packet = 6593
Flit latency average = 20.007
	minimum = 7
	maximum = 43
Slowest flit = 6593
Fragmentation average = 0
	minimum = 0
	maximum = 0
Injected packet rate average = 0.05
	minimum = 0.0365 (at node 9)
	maximum = 0.061 (at node 15)
Accepted packet rate average = 0.0494062
	minimum = 0.0405 (at node 14)
	maximum = 0.059 (at node 10)
Injected flit rate average = 0.05
	minimum = 0.0365 (at node 9)
	maximum = 0.061 (at node 15)
Accepted flit rate average= 0.0494062
	minimum = 0.0405 (at node 14)
	maximum = 0.059 (at node 10)
Injected packet length average = 1
Accepted packet length average = 1
Total in-flight flits = 19 (0 measured)
latency change    = 0.00617906
throughput change = 0.0132827
Class 0:
Packet latency average = 19.342
	minimum = 7
	maximum = 38
Network latency average = 19.342
	minimum = 7
	maximum = 38
Slowest packet = 7423
Flit latency average = 19.342
	minimum = 7
	maximum = 38
Slowest flit = 7423
Fragmentation average = 0
	minimum = 0
	maximum = 0
Injected packet rate average = 0.050125
	minimum = 0.041 (at node 1)
	maximum = 0.061 (at node 0)
Accepted packet rate average = 0.050625
	minimum = 0.031 (at node 0)
	maximum = 0.074 (at node 2)
Injected flit rate average = 0.050125
	minimum = 0.041 (at node 1)
	maximum = 0.061 (at node 0)
Accepted flit rate average= 0.050625
	minimum = 0.031 (at node 0)
	maximum = 0.074 (at node 2)
Injected packet length average = 1
Accepted packet length average = 1
Total in-flight flits = 11 (0 measured)
latency change    = 0.0343803
throughput change = 0.0240741
Warmed up ...Time used is 3000 cycles
Class 0:
Packet latency average = 19.7554
	minimum = 7
	maximum = 38
Network latency average = 19.7554
	minimum = 7
	maximum = 38
Slowest packet = 8270
Flit latency average = 19.7622
	minimum = 7
	maximum = 38
Slowest flit = 8270
Fragmentation average = 0
	minimum = 0
	maximum = 0
Injected packet rate average = 0.0526875
	minimum = 0.041 (at node 5)
	maximum = 0.063 (at node 10)
Accepted packet rate average = 0.0523125
	minimum = 0.041 (at node 6)
	maximum = 0.063 (at node 0)
Injected flit rate average = 0.0526875
	minimum = 0.041 (at node 5)
	maximum = 0.063 (at node 10)
Accepted flit rate average= 0.0523125
	minimum = 0.041 (at node 6)
	maximum = 0.063 (at node 0)
Injected packet length average = 1
Accepted packet length average = 1
Total in-flight flits = 17 (17 measured)
latency change    = 0.0209295
throughput change = 0.0322581
Class 0:
Packet latency average = 19.9581
	minimum = 7
	maximum = 38
Network latency average = 19.9581
	minimum = 7
	maximum = 38
Slowest packet = 8270
Flit latency average = 19.9602
	minimum = 7
	maximum = 38
Slowest flit = 8270
Fragmentation average = 0
	minimum = 0
	maximum = 0
Injected packet rate average = 0.0510625
	minimum = 0.045 (at node 5)
	maximum = 0.0565 (at node 6)
Accepted packet rate average = 0.0510313
	minimum = 0.045 (at node 9)
	maximum = 0.06 (at node 0)
Injected flit rate average = 0.0510625
	minimum = 0.045 (at node 5)
	maximum = 0.0565 (at node 6)
Accepted flit rate average= 0.0510313
	minimum = 0.045 (at node 9)
	maximum = 0.06 (at node 0)
Injected packet length average = 1
Accepted packet length average = 1
Total in-flight flits = 12 (12 measured)
latency change    = 0.0101527
throughput change = 0.0251072
Class 0:
Packet latency average = 19.9485
	minimum = 7
	maximum = 38
Network latency average = 19.9485
	minimum = 7
	maximum = 38
Slowest packet = 8270
Flit latency average = 19.95
	minimum = 7
	maximum = 38
Slowest flit = 8270
Fragmentation average = 0
	minimum = 0
	maximum = 0
Injected packet rate average = 0.050125
	minimum = 0.0456667 (at node 3)
	maximum = 0.0556667 (at node 15)
Accepted packet rate average = 0.0500208
	minimum = 0.0433333 (at node 9)
	maximum = 0.0573333 (at node 0)
Injected flit rate average = 0.050125
	minimum = 0.0456667 (at node 3)
	maximum = 0.0556667 (at node 15)
Accepted flit rate average= 0.0500208
	minimum = 0.0433333 (at node 9)
	maximum = 0.0573333 (at node 0)
Injected packet length average = 1
Accepted packet length average = 1
Total in-flight flits = 16 (16 measured)
latency change    = 0.000478275
throughput change = 0.0201999
Draining all recorded packets ...
Draining remaining packets ...
Time taken is 6047 cycles
Class 0:
Packet latency average = 20.0642
	minimum = 7
	maximum = 38
Network latency average = 20.0642
	minimum = 7
	maximum = 38
Slowest packet = 10626
Flit latency average = 20.0642
	minimum = 7
	maximum = 38
Slowest flit = 10626
Fragmentation average = 0
	minimum = 0
	maximum = 0
Injected packet rate average = 0.049375
	minimum = 0.037 (at node 0)
	maximum = 0.063 (at node 6)
Accepted packet rate average = 0.0486875
	minimum = 0.035 (at node 6)
	maximum = 0.063 (at node 3)
Injected flit rate average = 0.049375
	minimum = 0.037 (at node 0)
	maximum = 0.063 (at node 6)
Accepted flit rate average= 0.0486875
	minimum = 0.035 (at node 6)
	maximum = 0.063 (at node 3)
Injected packet length average = 1
Accepted packet length average = 1
Total in-flight flits = 11 (0 measured)
latency change    = 1
throughput change = 1
Class 0:
Packet latency average = 19.8035
	minimum = 7
	maximum = 38
Network latency average = 19.8035
	minimum = 7
	maximum = 38
Slowest packet = 10626
Flit latency average = 19.8035
	minimum = 7
	maximum = 38
Slowest flit = 10626
Fragmentation average = 0
	minimum = 0
	maximum = 0
Injected packet rate average = 0.0498125
	minimum = 0.044 (at node 0)
	maximum = 0.058 (at node 11)
Accepted packet rate average = 0.0493125
	minimum = 0.041 (at node 0)
	maximum = 0.0575 (at node 13)
Injected flit rate average = 0.0498125
	minimum = 0.044 (at node 0)
	maximum = 0.058 (at node 11)
Accepted flit rate average= 0.0493125
	minimum = 0.041 (at node 0)
	maximum = 0.0575 (at node 13)
Injected packet length average = 1
Accepted packet length average = 1
Total in-flight flits = 16 (0 measured)
latency change    = 0.0131611
throughput change = 0.0126743
Class 0:
Packet latency average = 19.8371
	minimum = 7
	maximum = 43
Network latency average = 19.8371
	minimum = 7
	maximum = 43
Slowest packet = 12833
Flit latency average = 19.8371
	minimum = 7
	maximum = 43
Slowest flit = 12833
Fragmentation average = 0
	minimum = 0
	maximum = 0
Injected packet rate average = 0.0530625
	minimum = 0.039 (at node 13)
	maximum = 0.063 (at node 4)
Accepted packet rate average = 0.0529375
	minimum = 0.043 (at node 4)
	maximum = 0.066 (at node 8)
Injected flit rate average = 0.0530625
	minimum = 0.039 (at node 13)
	maximum = 0.063 (at node 4)
Accepted flit rate average= 0.0529375
	minimum = 0.043 (at node 4)
	maximum = 0.066 (at node 8)
Injected packet length average = 1
Accepted packet length average = 1
Total in-flight flits = 18 (0 measured)
latency change    = 0.00168993
throughput change = 0.068477
Warmed up ...Time used is 3000 cycles
Class 0:
Packet latency average = 20.1504
	minimum = 7
	maximum = 41
Network latency average = 20.1504
	minimum = 7
	maximum = 41
Slowest packet = 13565
Flit latency average = 20.2341
	minimum = 7
	maximum = 41
Slowest flit = 13565
Fragmentation average = 0
	minimum = 0
	maximum = 0
Injected packet rate average = 0.0470625
	minimum = 0.036 (at node 1)
	maximum = 0.066 (at node 8)
Accepted packet rate average = 0.04725
	minimum = 0.038 (at node 6)
	maximum = 0.057 (at node 1)
Injected flit rate average = 0.0470625
	minimum = 0.036 (at node 1)
	maximum = 0.066 (at node 8)
Accepted flit rate average= 0.04725
	minimum = 0.038 (at node 6)
	maximum = 0.057 (at node 1)
Injected packet length average = 1
Accepted packet length average = 1
Total in-flight flits = 15 (15 measured)
latency change    = 0.0155498
throughput change = 0.12037
Class 0:
Packet latency average = 19.9137
	minimum = 7
	maximum = 41
Network latency average = 19.9137
	minimum = 7
	maximum = 41
Slowest packet = 13565
Flit latency average = 19.9561
	minimum = 7
	maximum = 41
Slowest flit = 13565
Fragmentation average = 0
	minimum = 0
	maximum = 0
Injected packet rate average = 0.0499062
	minimum = 0.0395 (at node 1)
	maximum = 0.0605 (at node 8)
Accepted packet rate average = 0.0497812
	minimum = 0.0405 (at node 2)
	maximum = 0.063 (at node 8)
Injected flit rate average = 0.0499062
	minimum = 0.0395 (at node 1)
	maximum = 0.0605 (at node 8)
Accepted flit rate average= 0.0497812
	minimum = 0.0405 (at node 2)
	maximum = 0.063 (at node 8)
Injected packet length average = 1
Accepted packet length average = 1
Total in-flight flits = 22 (22 measured)
latency change    = 0.0118891
throughput change = 0.0508475
Class 0:
Packet latency average = 19.814
	minimum = 7
	maximum = 41
Network latency average = 19.814
	minimum = 7
	maximum = 41
Slowest packet = 13565
Flit latency average = 19.8435
	minimum = 7
	maximum = 41
Slowest flit = 13565
Fragmentation average = 0
	minimum = 0
	maximum = 0
Injected packet rate average = 0.0489375
	minimum = 0.0423333 (at node 3)
	maximum = 0.055 (at node 8)
Accepted packet rate average = 0.0489792
	minimum = 0.0426667 (at node 10)
	maximum = 0.0563333 (at node 8)
Injected flit rate average = 0.0489375
	minimum = 0.0423333 (at node 3)
	maximum = 0.055 (at node 8)
Accepted flit rate average= 0.0489792
	minimum = 0.0426667 (at node 10)
	maximum = 0.0563333 (at node 8)
Injected packet length average = 1
Accepted packet length average = 1
Total in-flight flits = 16 (16 measured)
latency change    = 0.00503066
throughput change = 0.016376
Class 0:
Packet latency average = 19.7544
	minimum = 7
	maximum = 41
Network latency average = 19.7544
	minimum = 7
	maximum = 41
Slowest packet = 13565
Flit latency average = 19.7769
	minimum = 7
	maximum = 41
Slowest flit = 13565
Fragmentation average = 0
	minimum = 0
	maximum = 0
Injected packet rate average = 0.0490156
	minimum = 0.0435 (at node 3)
	maximum = 0.05525 (at node 8)
Accepted packet rate average = 0.0489531
	minimum = 0.043 (at node 10)
	maximum = 0.05825 (at node 8)
Injected flit rate average = 0.0490156
	minimum = 0.0435 (at node 3)
	maximum = 0.05525 (at node 8)
Accepted flit rate average= 0.0489531
	minimum = 0.043 (at node 10)
	maximum = 0.05825 (at node 8)
Injected packet length average = 1
Accepted packet length average = 1
Total in-flight flits = 22 (22 measured)
latency change    = 0.00301499
throughput change = 0.000531971
Class 0:
Packet latency average = 19.7682
	minimum = 7
	maximum = 41
Network latency average = 19.7682
	minimum = 7
	maximum = 41
Slowest packet = 13565
Flit latency average = 19.7861
	minimum = 7
	maximum = 41
Slowest flit = 13565
Fragmentation average = 0
	minimum = 0
	maximum = 0
Injected packet rate average = 0.0489875
	minimum = 0.0456 (at node 3)
	maximum = 0.0532 (at node 4)
Accepted packet rate average = 0.048975
	minimum = 0.0436 (at node 9)
	maximum = 0.057 (at node 8)
Injected flit rate average = 0.0489875
	minimum = 0.0456 (at node 3)
	maximum = 0.0532 (at node 4)
Accepted flit rate average= 0.048975
	minimum = 0.0436 (at node 9)
	maximum = 0.057 (at node 8)
Injected packet length average = 1
Accepted packet length average = 1
Total in-flight flits = 19 (19 measured)
latency change    = 0.000697636
throughput change = 0.000446656
Draining all recorded packets ...
Draining remaining packets ...
Time taken is 8052 cycles
Class 0:
Packet latency average = 19.596
	minimum = 7
	maximum = 41
Network latency average = 19.596
	minimum = 7
	maximum = 41
Slowest packet = 17243
Flit latency average = 19.596
	minimum = 7
	maximum = 41
Slowest flit = 17243
Fragmentation average = 0
	minimum = 0
	maximum = 0
Injected packet rate average = 0.0513125
	minimum = 0.036 (at node 10)
	maximum = 0.061 (at node 2)
Accepted packet rate average = 0.0504375
	minimum = 0.039 (at node 5)
	maximum = 0.065 (at node 2)
Injected flit rate average = 0.0513125
	minimum = 0.036 (at node 10)
	maximum = 0.061 (at node 2)
Accepted flit rate average= 0.0504375
	minimum = 0.039 (at node 5)
	maximum = 0.065 (at node 2)
Injected packet length average = 1
Accepted packet length average = 1
Total in-flight flits = 14 (0 measured)
latency change    = 1
throughput change = 1
Class 0:
Packet latency average = 19.6298
	minimum = 7
	maximum = 41
Network latency average = 19.6298
	minimum = 7
	maximum = 41
Slowest packet = 17243
Flit latency average = 19.6298
	minimum = 7
	maximum = 41
Slowest flit = 17243
Fragmentation average = 0
	minimum = 0
	maximum = 0
Injected packet rate average = 0.0499062
	minimum = 0.0425 (at node 10)
	maximum = 0.063 (at node 13)
Accepted packet rate average = 0.0494687
	minimum = 0.042 (at node 1)
	maximum = 0.0555 (at node 4)
Injected flit rate average = 0.0499062
	minimum = 0.0425 (at node 10)
	maximum = 0.063 (at node 13)
Accepted flit rate average= 0.0494687
	minimum = 0.042 (at node 1)
	maximum = 0.0555 (at node 4)
Injected packet length average = 1
Accepted packet length average = 1
Total in-flight flits = 14 (0 measured)
latency change    = 0.00172096
throughput change = 0.0195831
Class 0:
Packet latency average = 19.1168
	minimum = 7
	maximum = 41
Network latency average = 19.1168
	minimum = 7
	maximum = 41
Slowest packet = 19087
Flit latency average = 19.1168
	minimum = 7
	maximum = 41
Slowest flit = 19087
Fragmentation average = 0
	minimum = 0
	maximum = 0
Injected packet rate average = 0.05
	minimum = 0.039 (at node 5)
	maximum = 0.064 (at node 6)
Accepted packet rate average = 0.04975
	minimum = 0.041 (at node 7)
	maximum = 0.061 (at node 10)
Injected flit rate average = 0.05
	minimum = 0.039 (at node 5)
	maximum = 0.064 (at node 6)
Accepted flit rate average= 0.04975
	minimum = 0.041 (at node 7)
	maximum = 0.061 (at node 10)
Injected packet length average = 1
Accepted packet length average = 1
Total in-flight flits = 18 (0 measured)
latency change    = 0.0268341
throughput change = 0.00565327
Warmed up ...Time used is 3000 cycles
Class 0:
Packet latency average = 19.7001
	minimum = 7
	maximum = 43
Network latency average = 19.7001
	minimum = 7
	maximum = 43
Slowest packet = 19850
Flit latency average = 19.7277
	minimum = 7
	maximum = 43
Slowest flit = 19850
Fragmentation average = 0
	minimum = 0
	maximum = 0
Injected packet rate average = 0.0478125
	minimum = 0.036 (at node 5)
	maximum = 0.058 (at node 2)
Accepted packet rate average = 0.0484375
	minimum = 0.037 (at node 15)
	maximum = 0.057 (at node 11)
Injected flit rate average = 0.0478125
	minimum = 0.036 (at node 5)
	maximum = 0.058 (at node 2)
Accepted flit rate average= 0.0484375
	minimum = 0.037 (at node 15)
	maximum = 0.057 (at node 11)
Injected packet length average = 1
Accepted packet length average = 1
Total in-flight flits = 8 (8 measured)
latency change    = 0.0296088
throughput change = 0.0270968
Class 0:
Packet latency average = 19.7013
	minimum = 7
	maximum = 43
Network latency average = 19.7013
	minimum = 7
	maximum = 43
Slowest packet = 19850
Flit latency average = 19.7153
	minimum = 7
	maximum = 43
Slowest flit = 19850
Fragmentation average = 0
	minimum = 0
	maximum = 0
Injected packet rate average = 0.0475625
	minimum = 0.036 (at node 5)
	maximum = 0.0535 (at node 3)
Accepted packet rate average = 0.04775
	minimum = 0.042 (at node 8)
	maximum = 0.057 (at node 3)
Injected flit rate average = 0.0475625
	minimum = 0.036 (at node 5)
	maximum = 0.0535 (at node 3)
Accepted flit rate average= 0.04775
	minimum = 0.042 (at node 8)
	maximum = 0.057 (at node 3)
Injected packet length average = 1
Accepted packet length average = 1
Total in-flight flits = 12 (12 measured)
latency change    = 6.0524e-05
throughput change = 0.0143979
Class 0:
Packet latency average = 19.7333
	minimum = 7
	maximum = 43
Network latency average = 19.7333
	minimum = 7
	maximum = 43
Slowest packet = 19850
Flit latency average = 19.7422
	minimum = 7
	maximum = 43
Slowest flit = 19850
Fragmentation average = 0
	minimum = 0
	maximum = 0
Injected packet rate average = 0.0485
	minimum = 0.041 (at node 1)
	maximum = 0.0536667 (at node 7)
Accepted packet rate average = 0.0486458
	minimum = 0.0433333 (at node 8)
	maximum = 0.0536667 (at node 9)
Injected flit rate average = 0.0485
	minimum = 0.041 (at node 1)
	maximum = 0.0536667 (at node 7)
Accepted flit rate average= 0.0486458
	minimum = 0.0433333 (at node 8)
	maximum = 0.0536667 (at node 9)
Injected packet length average = 1
Accepted packet length average = 1
Total in-flight flits = 11 (11 measured)
latency change    = 0.00161916
throughput change = 0.0184154
Draining all recorded packets ...
Draining remaining packets ...
Time taken is 6047 cycles
Class 0:
Packet latency average = 19.4692
	minimum = 7
	maximum = 45
Network latency average = 19.4692
	minimum = 7
	maximum = 45
Slowest packet = 22392
Flit latency average = 19.4692
	minimum = 7
	maximum = 45
Slowest flit = 22392
Fragmentation average = 0
	minimum = 0
	maximum = 0
Injected packet rate average = 0.0523125
	minimum = 0.041 (at node 13)
	maximum = 0.074 (at node 14)
Accepted packet rate average = 0.0518125
	minimum = 0.044 (at node 0)
	maximum = 0.065 (at node 14)
Injected flit rate average = 0.0523125
	minimum = 0.041 (at node 13)
	maximum = 0.074 (at node 14)
Accepted flit rate average= 0.0518125
	minimum = 0.044 (at node 0)
	maximum = 0.065 (at node 14)
Injected packet length average = 1
Accepted packet length average = 1
Total in-flight flits = 8 (0 measured)
latency change    = 1
throughput change = 1
Class 0:
Packet latency average = 19.5786
	minimum = 7
	maximum = 46
Network latency average = 19.5786
	minimum = 7
	maximum = 46
Slowest packet = 23016
Flit latency average = 19.5786
	minimum = 7
	maximum = 46
Slowest flit = 23016
Fragmentation average = 0
	minimum = 0
	maximum = 0
Injected packet rate average = 0.0528125
	minimum = 0.041 (at node 9)
	maximum = 0.0665 (at node 14)
Accepted packet rate average = 0.0525
	minimum = 0.043 (at node 5)
	maximum = 0.0655 (at node 12)
Injected flit rate average = 0.0528125
	minimum = 0.041 (at node 9)
	maximum = 0.0665 (at node 14)
Accepted flit rate average= 0.0525
	minimum = 0.043 (at node 5)
	maximum = 0.0655 (at node 12)
Injected packet length average = 1
Accepted packet length average = 1
Total in-flight flits = 10 (0 measured)
latency change    = 0.00558424
throughput change = 0.0130952
Class 0:
Packet latency average = 19.0809
	minimum = 7
	maximum = 41
Network latency average = 19.0809
	minimum = 7
	maximum = 41
Slowest packet = 23708
Flit latency average = 19.0809
	minimum = 7
	maximum = 41
Slowest flit = 23708
Fragmentation average = 0
	minimum = 0
	maximum = 0
Injected packet rate average = 0.050625
	minimum = 0.041 (at node 13)
	maximum = 0.06 (at node 1)
Accepted packet rate average = 0.0501875
	minimum = 0.042 (at node 3)
	maximum = 0.06 (at node 1)
Injected flit rate average = 0.050625
	minimum = 0.041 (at node 13)
	maximum = 0.06 (at node 1)
Accepted flit rate average= 0.0501875
	minimum = 0.042 (at node 3)
	maximum = 0.06 (at node 1)
Injected packet length average = 1
Accepted packet length average = 1
Total in-flight flits = 17 (0 measured)
latency change    = 0.0260797
throughput change = 0.0460772
Warmed up ...Time used is 3000 cycles
Class 0:
Packet latency average = 19.3595
	minimum = 7
	maximum = 38
Network latency average = 19.3595
	minimum = 7
	maximum = 38
Slowest packet = 24331
Flit latency average = 19.3532
	minimum = 7
	maximum = 38
Slowest flit = 24331
Fragmentation average = 0
	minimum = 0
	maximum = 0
Injected packet rate average = 0.050375
	minimum = 0.038 (at node 5)
	maximum = 0.058 (at node 15)
Accepted packet rate average = 0.0504375
	minimum = 0.037 (at node 11)
	maximum = 0.069 (at node 5)
Injected flit rate average = 0.050375
	minimum = 0.038 (at node 5)
	maximum = 0.058 (at node 15)
Accepted flit rate average= 0.0504375
	minimum = 0.037 (at node 11)
	maximum = 0.069 (at node 5)
Injected packet length average = 1
Accepted packet length average = 1
Total in-flight flits = 16 (16 measured)
latency change    = 0.0143881
throughput change = 0.00495663
Class 0:
Packet latency average = 19.4932
	minimum = 7
	maximum = 46
Network latency average = 19.4932
	minimum = 7
	maximum = 46
Slowest packet = 25605
Flit latency average = 19.4885
	minimum = 7
	maximum = 46
Slowest flit = 25605
Fragmentation average = 0
	minimum = 0
	maximum = 0
Injected packet rate average = 0.048625
	minimum = 0.0405 (at node 7)
	maximum = 0.062 (at node 4)
Accepted packet rate average = 0.0488125
	minimum = 0.043 (at node 2)
	maximum = 0.0595 (at node 9)
Injected flit rate average = 0.048625
	minimum = 0.0405 (at node 7)
	maximum = 0.062 (at node 4)
Accepted flit rate average= 0.0488125
	minimum = 0.043 (at node 2)
	maximum = 0.0595 (at node 9)
Injected packet length average = 1
Accepted packet length average = 1
Total in-flight flits = 11 (11 measured)
latency change    = 0.00685932
throughput change = 0.0332907
Class 0:
Packet latency average = 19.6421
	minimum = 7
	maximum = 46
Network latency average = 19.6421
	minimum = 7
	maximum = 46
Slowest packet = 25605
Flit latency average = 19.638
	minimum = 7
	maximum = 46
Slowest flit = 25605
Fragmentation average = 0
	minimum = 0
	maximum = 0
Injected packet rate average = 0.0497083
	minimum = 0.0453333 (at node 8)
	maximum = 0.0593333 (at node 3)
Accepted packet rate average = 0.0496042
	minimum = 0.043 (at node 6)
	maximum = 0.0576667 (at node 0)
Injected flit rate average = 0.0497083
	minimum = 0.0453333 (at node 8)
	maximum = 0.0593333 (at node 3)
Accepted flit rate average= 0.0496042
	minimum = 0.043 (at node 6)
	maximum = 0.0576667 (at node 0)
Injected packet length average = 1
Accepted packet length average = 1
Total in-flight flits = 22 (22 measured)
latency change    = 0.00758207
throughput change = 0.0159597
Draining all recorded packets ...
Draining remaining packets ...
Time taken is 6053 cycles
Class 0:
Packet latency average = 19.1708
	minimum = 7
	maximum = 46
Network latency average = 19.1708
	minimum = 7
	maximum = 46
Slowest packet = 26699
Flit latency average = 19.1708
	minimum = 7
	maximum = 46
Slowest flit = 26699
Fragmentation average = 0
	minimum = 0
	maximum = 0
Injected packet rate average = 0.0490625
	minimum = 0.039 (at node 12)
	maximum = 0.06 (at node 11)
Accepted packet rate average = 0.0479375
	minimum = 0.032 (at node 11)
	maximum = 0.066 (at node 3)
Injected flit rate average = 0.0490625
	minimum = 0.039 (at node 12)
	maximum = 0.06 (at node 11)
Accepted flit rate average= 0.0479375
	minimum = 0.032 (at node 11)
	maximum = 0.066 (at node 3)
Injected packet length average = 1
Accepted packet length average = 1
Total in-flight flits = 18 (0 measured)
latency change    = 1
throughput change = 1
Class 0:
Packet latency average = 19.7466
	minimum = 7
	maximum = 46
Network latency average = 19.7466
	minimum = 7
	maximum = 46
Slowest packet = 26699
Flit latency average = 19.7466
	minimum = 7
	maximum = 46
Slowest flit = 26699
Fragmentation average = 0
	minimum = 0
	maximum = 0
Injected packet rate average = 0.0491875
	minimum = 0.0415 (at node 3)
	maximum = 0.057 (at node 0)
Accepted packet rate average = 0.0485937
	minimum = 0.033 (at node 11)
	maximum = 0.0635 (at node 3)
Injected flit rate average = 0.0491875
	minimum = 0.0415 (at node 3)
	maximum = 0.057 (at node 0)
Accepted flit rate average= 0.0485937
	minimum = 0.033 (at node 11)
	maximum = 0.0635 (at node 3)
Injected packet length average = 1
Accepted packet length average = 1
Total in-flight flits = 19 (0 measured)
latency change    = 0.0291609
throughput change = 0.0135048
Class 0:
Packet latency average = 19.9714
	minimum = 7
	maximum = 38
Network latency average = 19.9677
	minimum = 7
	maximum = 38
Slowest packet = 28239
Flit latency average = 19.9677
	minimum = 7
	maximum = 38
Slowest flit = 28239
Fragmentation average = 0
	minimum = 0
	maximum = 0
Injected packet rate average = 0.04975
	minimum = 0.037 (at node 0)
	maximum = 0.061 (at node 15)
Accepted packet rate average = 0.05025
	minimum = 0.04 (at node 7)
	maximum = 0.061 (at node 11)
Injected flit rate average = 0.04975
	minimum = 0.037 (at node 0)
	maximum = 0.061 (at node 15)
Accepted flit rate average= 0.05025
	minimum = 0.04 (at node 7)
	maximum = 0.061 (at node 11)
Injected packet length average = 1
Accepted packet length average = 1
Total in-flight flits = 11 (0 measured)
latency change    = 0.0112546
throughput change = 0.0329602
Warmed up ...Time used is 3000 cycles
Class 0:
Packet latency average = 19.6185
	minimum = 7
	maximum = 37
Network latency average = 19.6185
	minimum = 7
	maximum = 37
Slowest packet = 28941
Flit latency average = 19.6264
	minimum = 7
	maximum = 37
Slowest flit = 28941
Fragmentation average = 0
	minimum = 0
	maximum = 0
Injected packet rate average = 0.0491875
	minimum = 0.036 (at node 2)
	maximum = 0.062 (at node 5)
Accepted packet rate average = 0.0486875
	minimum = 0.033 (at node 13)
	maximum = 0.067 (at node 14)
Injected flit rate average = 0.0491875
	minimum = 0.036 (at node 2)
	maximum = 0.062 (at node 5)
Accepted flit rate average= 0.0486875
	minimum = 0.033 (at node 13)
	maximum = 0.067 (at node 14)
Injected packet length average = 1
Accepted packet length average = 1
Total in-flight flits = 19 (19 measured)
latency change    = 0.0179883
throughput change = 0.0320924
Class 0:
Packet latency average = 19.5764
	minimum = 7
	maximum = 38
Network latency average = 19.5764
	minimum = 7
	maximum = 38
Slowest packet = 30010
Flit latency average = 19.5807
	minimum = 7
	maximum = 38
Slowest flit = 30010
Fragmentation average = 0
	minimum = 0
	maximum = 0
Injected packet rate average = 0.0488437
	minimum = 0.0395 (at node 6)
	maximum = 0.054 (at node 11)
Accepted packet rate average = 0.0488125
	minimum = 0.042 (at node 13)
	maximum = 0.0585 (at node 14)
Injected flit rate average = 0.0488437
	minimum = 0.0395 (at node 6)
	maximum = 0.054 (at node 11)
Accepted flit rate average= 0.0488125
	minimum = 0.042 (at node 13)
	maximum = 0.0585 (at node 14)
Injected packet length average = 1
Accepted packet length average = 1
Total in-flight flits = 12 (12 measured)
latency change    = 0.0021499
throughput change = 0.00256082
Class 0:
Packet latency average = 19.623
	minimum = 7
	maximum = 41
Network latency average = 19.623
	minimum = 7
	maximum = 41
Slowest packet = 30590
Flit latency average = 19.6257
	minimum = 7
	maximum = 41
Slowest flit = 30590
Fragmentation average = 0
	minimum = 0
	maximum = 0
Injected packet rate average = 0.0475833
	minimum = 0.043 (at node 15)
	maximum = 0.051 (at node 3)
Accepted packet rate average = 0.0474167
	minimum = 0.0413333 (at node 7)
	maximum = 0.0543333 (at node 14)
Injected flit rate average = 0.0475833
	minimum = 0.043 (at node 15)
	maximum = 0.051 (at node 3)
Accepted flit rate average= 0.0474167
	minimum = 0.0413333 (at node 7)
	maximum = 0.0543333 (at node 14)
Injected packet length average = 1
Accepted packet length average = 1
Total in-flight flits = 19 (19 measured)
latency change    = 0.00237251
throughput change = 0.0294376
Draining all recorded packets ...
Draining remaining packets ...
Time taken is 6068 cycles
Class 0:
Packet latency average = 19.0691
	minimum = 7
	maximum = 49
Network latency average = 19.0691
	minimum = 7
	maximum = 49
Slowest packet = 31524
Flit latency average = 19.0691
	minimum = 7
	maximum = 49
Slowest flit = 31524
Fragmentation average = 0
	minimum = 0
	maximum = 0
Injected packet rate average = 0.0509375
	minimum = 0.032 (at node 13)
	maximum = 0.061 (at node 5)
Accepted packet rate average = 0.04975
	minimum = 0.037 (at node 7)
	maximum = 0.061 (at node 10)
Injected flit rate average = 0.0509375
	minimum = 0.032 (at node 13)
	maximum = 0.061 (at node 5)
Accepted flit rate average= 0.04975
	minimum = 0.037 (at node 7)
	maximum = 0.061 (at node 10)
Injected packet length average = 1
Accepted packet length average = 1
Total in-flight flits = 19 (0 measured)
latency change    = 1
throughput change = 1
Class 0:
Packet latency average = 19.6027
	minimum = 7
	maximum = 49
Network latency average = 19.6027
	minimum = 7
	maximum = 49
Slowest packet = 31524
Flit latency average = 19.6027
	minimum = 7
	maximum = 49
Slowest flit = 31524
Fragmentation average = 0
	minimum = 0
	maximum = 0
Injected packet rate average = 0.0510625
	minimum = 0.036 (at node 13)
	maximum = 0.0585 (at node 1)
Accepted packet rate average = 0.0505
	minimum = 0.042 (at node 1)
	maximum = 0.059 (at node 12)
Injected flit rate average = 0.0510625
	minimum = 0.036 (at node 13)
	maximum = 0.0585 (at node 1)
Accepted flit rate average= 0.0505
	minimum = 0.042 (at node 1)
	maximum = 0.059 (at node 12)
Injected packet length average = 1
Accepted packet length average = 1
Total in-flight flits = 18 (0 measured)
latency change    = 0.0272221
throughput change = 0.0148515
Class 0:
Packet latency average = 19.9692
	minimum = 7
	maximum = 38
Network latency average = 19.9692
	minimum = 7
	maximum = 38
Slowest packet = 33282
Flit latency average = 19.9692
	minimum = 7
	maximum = 38
Slowest flit = 33282
Fragmentation average = 0
	minimum = 0
	maximum = 0
Injected packet rate average = 0.0483125
	minimum = 0.034 (at node 5)
	maximum = 0.058 (at node 8)
Accepted packet rate average = 0.048625
	minimum = 0.035 (at node 12)
	maximum = 0.064 (at node 2)
Injected flit rate average = 0.0483125
	minimum = 0.034 (at node 5)
	maximum = 0.058 (at node 8)
Accepted flit rate average= 0.048625
	minimum = 0.035 (at node 12)
	maximum = 0.064 (at node 2)
Injected packet length average = 1
Accepted packet length average = 1
Total in-flight flits = 13 (0 measured)
latency change    = 0.0183497
throughput change = 0.0385604
Warmed up ...Time used is 3000 cycles
Class 0:
Packet latency average = 19.2944
	minimum = 7
	maximum = 38
Network latency average = 19.2944
	minimum = 7
	maximum = 38
Slowest packet = 34192
Flit latency average = 19.3716
	minimum = 7
	maximum = 38
Slowest flit = 34192
Fragmentation average = 0
	minimum = 0
	maximum = 0
Injected packet rate average = 0.046375
	minimum = 0.032 (at node 12)
	maximum = 0.059 (at node 6)
Accepted packet rate average = 0.04625
	minimum = 0.034 (at node 2)
	maximum = 0.059 (at node 0)
Injected flit rate average = 0.046375
	minimum = 0.032 (at node 12)
	maximum = 0.059 (at node 6)
Accepted flit rate average= 0.04625
	minimum = 0.034 (at node 2)
	maximum = 0.059 (at node 0)
Injected packet length average = 1
Accepted packet length average = 1
Total in-flight flits = 15 (15 measured)
latency change    = 0.0349735
throughput change = 0.0513514
Class 0:
Packet latency average = 19.3658
	minimum = 7
	maximum = 40
Network latency average = 19.3658
	minimum = 7
	maximum = 40
Slowest packet = 34987
Flit latency average = 19.4014
	minimum = 7
	maximum = 40
Slowest flit = 34987
Fragmentation average = 0
	minimum = 0
	maximum = 0
Injected packet rate average = 0.049625
	minimum = 0.0445 (at node 14)
	maximum = 0.061 (at node 4)
Accepted packet rate average = 0.0494375
	minimum = 0.0385 (at node 2)
	maximum = 0.071 (at node 0)
Injected flit rate average = 0.049625
	minimum = 0.0445 (at node 14)
	maximum = 0.061 (at node 4)
Accepted flit rate average= 0.0494375
	minimum = 0.0385 (at node 2)
	maximum = 0.071 (at node 0)
Injected packet length average = 1
Accepted packet length average = 1
Total in-flight flits = 19 (19 measured)
latency change    = 0.00369092
throughput change = 0.0644753
Class 0:
Packet latency average = 19.446
	minimum = 7
	maximum = 42
Network latency average = 19.446
	minimum = 7
	maximum = 42
Slowest packet = 35813
Flit latency average = 19.4689
	minimum = 7
	maximum = 42
Slowest flit = 35813
Fragmentation average = 0
	minimum = 0
	maximum = 0
Injected packet rate average = 0.0501875
	minimum = 0.0436667 (at node 2)
	maximum = 0.059 (at node 4)
Accepted packet rate average = 0.0502083
	minimum = 0.0416667 (at node 2)
	maximum = 0.0616667 (at node 0)
Injected flit rate average = 0.0501875
	minimum = 0.0436667 (at node 2)
	maximum = 0.059 (at node 4)
Accepted flit rate average= 0.0502083
	minimum = 0.0416667 (at node 2)
	maximum = 0.0616667 (at node 0)
Injected packet length average = 1
Accepted packet length average = 1
Total in-flight flits = 12 (12 measured)
latency change    = 0.00412096
throughput change = 0.0153527
Class 0:
Packet latency average = 19.3964
	minimum = 7
	maximum = 42
Network latency average = 19.3964
	minimum = 7
	maximum = 42
Slowest packet = 35813
Flit latency average = 19.4138
	minimum = 7
	maximum = 42
Slowest flit = 35813
Fragmentation average = 0
	minimum = 0
	maximum = 0
Injected packet rate average = 0.0503437
	minimum = 0.04525 (at node 2)
	maximum = 0.0555 (at node 4)
Accepted packet rate average = 0.0501875
	minimum = 0.04475 (at node 7)
	maximum = 0.05975 (at node 0)
Injected flit rate average = 0.0503437
	minimum = 0.04525 (at node 2)
	maximum = 0.0555 (at node 4)
Accepted flit rate average= 0.0501875
	minimum = 0.04475 (at node 7)
	maximum = 0.05975 (at node 0)
Injected packet length average = 1
Accepted packet length average = 1
Total in-flight flits = 23 (23 measured)
latency change    = 0.00255719
throughput change = 0.00041511
Class 0:
Packet latency average = 19.4679
	minimum = 7
	maximum = 44
Network latency average = 19.4679
	minimum = 7
	maximum = 44
Slowest packet = 37457
Flit latency average = 19.4814
	minimum = 7
	maximum = 44
Slowest flit = 37457
Fragmentation average = 0
	minimum = 0
	maximum = 0
Injected packet rate average = 0.0509
	minimum = 0.0458 (at node 2)
	maximum = 0.0584 (at node 4)
Accepted packet rate average = 0.0507625
	minimum = 0.045 (at node 2)
	maximum = 0.057 (at node 15)
Injected flit rate average = 0.0509
	minimum = 0.0458 (at node 2)
	maximum = 0.0584 (at node 4)
Accepted flit rate average= 0.0507625
	minimum = 0.045 (at node 2)
	maximum = 0.057 (at node 15)
Injected packet length average = 1
Accepted packet length average = 1
Total in-flight flits = 24 (24 measured)
latency change    = 0.00367331
throughput change = 0.0113273
Draining all recorded packets ...
Draining remaining packets ...
Time taken is 8048 cycles
Class 0:
Packet latency average = 19.1783
	minimum = 7
	maximum = 37
Network latency average = 19.1783
	minimum = 7
	maximum = 37
Slowest packet = 37775
Flit latency average = 19.1783
	minimum = 7
	maximum = 37
Slowest flit = 37775
Fragmentation average = 0
	minimum = 0
	maximum = 0
Injected packet rate average = 0.0505
	minimum = 0.043 (at node 3)
	maximum = 0.062 (at node 9)
Accepted packet rate average = 0.0494375
	minimum = 0.039 (at node 12)
	maximum = 0.063 (at node 10)
Injected flit rate average = 0.0505
	minimum = 0.043 (at node 3)
	maximum = 0.062 (at node 9)
Accepted flit rate average= 0.0494375
	minimum = 0.039 (at node 12)
	maximum = 0.063 (at node 10)
Injected packet length average = 1
Accepted packet length average = 1
Total in-flight flits = 17 (0 measured)
latency change    = 1
throughput change = 1
Class 0:
Packet latency average = 19.1684
	minimum = 7
	maximum = 40
Network latency average = 19.1684
	minimum = 7
	maximum = 40
Slowest packet = 38751
Flit latency average = 19.1684
	minimum = 7
	maximum = 40
Slowest flit = 38751
Fragmentation average = 0
	minimum = 0
	maximum = 0
Injected packet rate average = 0.0505312
	minimum = 0.0445 (at node 13)
	maximum = 0.0565 (at node 6)
Accepted packet rate average = 0.0497187
	minimum = 0.0415 (at node 1)
	maximum = 0.058 (at node 10)
Injected flit rate average = 0.0505312
	minimum = 0.0445 (at node 13)
	maximum = 0.0565 (at node 6)
Accepted flit rate average= 0.0497187
	minimum = 0.0415 (at node 1)
	maximum = 0.058 (at node 10)
Injected packet length average = 1
Accepted packet length average = 1
Total in-flight flits = 26 (0 measured)
latency change    = 0.000511667
throughput change = 0.00565682
Class 0:
Packet latency average = 19.8558
	minimum = 7
	maximum = 39
Network latency average = 19.8558
	minimum = 7
	maximum = 39
Slowest packet = 39430
Flit latency average = 19.8558
	minimum = 7
	maximum = 39
Slowest flit = 39430
Fragmentation average = 0
	minimum = 0
	maximum = 0
Injected packet rate average = 0.0515
	minimum = 0.034 (at node 9)
	maximum = 0.06 (at node 2)
Accepted packet rate average = 0.052
	minimum = 0.037 (at node 12)
	maximum = 0.064 (at node 15)
Injected flit rate average = 0.0515
	minimum = 0.034 (at node 9)
	maximum = 0.06 (at node 2)
Accepted flit rate average= 0.052
	minimum = 0.037 (at node 12)
	maximum = 0.064 (at node 15)
Injected packet length average = 1
Accepted packet length average = 1
Total in-flight flits = 18 (0 measured)
latency change    = 0.0346157
throughput change = 0.0438702
Warmed up ...Time used is 3000 cycles
Class 0:
Packet latency average = 19.4108
	minimum = 7
	maximum = 43
Network latency average = 19.4108
	minimum = 7
	maximum = 43
Slowest packet = 40608
Flit latency average = 19.4472
	minimum = 7
	maximum = 43
Slowest flit = 40608
Fragmentation average = 0
	minimum = 0
	maximum = 0
Injected packet rate average = 0.0471875
	minimum = 0.037 (at node 1)
	maximum = 0.064 (at node 13)
Accepted packet rate average = 0.047375
	minimum = 0.037 (at node 14)
	maximum = 0.06 (at node 5)
Injected flit rate average = 0.0471875
	minimum = 0.037 (at node 1)
	maximum = 0.064 (at node 13)
Accepted flit rate average= 0.047375
	minimum = 0.037 (at node 14)
	maximum = 0.06 (at node 5)
Injected packet length average = 1
Accepted packet length average = 1
Total in-flight flits = 15 (15 measured)
latency change    = 0.0229232
throughput change = 0.0976253
Class 0:
Packet latency average = 19.4448
	minimum = 7
	maximum = 43
Network latency average = 19.4448
	minimum = 7
	maximum = 43
Slowest packet = 40608
Flit latency average = 19.4619
	minimum = 7
	maximum = 43
Slowest flit = 40608
Fragmentation average = 0
	minimum = 0
	maximum = 0
Injected packet rate average = 0.0492187
	minimum = 0.0395 (at node 8)
	maximum = 0.0585 (at node 6)
Accepted packet rate average = 0.04925
	minimum = 0.037 (at node 11)
	maximum = 0.0585 (at node 5)
Injected flit rate average = 0.0492187
	minimum = 0.0395 (at node 8)
	maximum = 0.0585 (at node 6)
Accepted flit rate average= 0.04925
	minimum = 0.037 (at node 11)
	maximum = 0.0585 (at node 5)
Injected packet length average = 1
Accepted packet length average = 1
Total in-flight flits = 17 (17 measured)
latency change    = 0.00174804
throughput change = 0.0380711
Class 0:
Packet latency average = 19.6048
	minimum = 7
	maximum = 43
Network latency average = 19.6048
	minimum = 7
	maximum = 43
Slowest packet = 40608
Flit latency average = 19.6149
	minimum = 7
	maximum = 43
Slowest flit = 40608
Fragmentation average = 0
	minimum = 0
	maximum = 0
Injected packet rate average = 0.0493542
	minimum = 0.0433333 (at node 7)
	maximum = 0.0553333 (at node 6)
Accepted packet rate average = 0.0493958
	minimum = 0.039 (at node 0)
	maximum = 0.0553333 (at node 3)
Injected flit rate average = 0.0493542
	minimum = 0.0433333 (at node 7)
	maximum = 0.0553333 (at node 6)
Accepted flit rate average= 0.0493958
	minimum = 0.039 (at node 0)
	maximum = 0.0553333 (at node 3)
Injected packet length average = 1
Accepted packet length average = 1
Total in-flight flits = 16 (16 measured)
latency change    = 0.00815918
throughput change = 0.00295234
Class 0:
Packet latency average = 19.6936
	minimum = 7
	maximum = 43
Network latency average = 19.6936
	minimum = 7
	maximum = 43
Slowest packet = 40608
Flit latency average = 19.7008
	minimum = 7
	maximum = 43
Slowest flit = 40608
Fragmentation average = 0
	minimum = 0
	maximum = 0
Injected packet rate average = 0.0489531
	minimum = 0.04475 (at node 14)
	maximum = 0.05625 (at node 13)
Accepted packet rate average = 0.0490312
	minimum = 0.04 (at node 0)
	maximum = 0.0545 (at node 5)
Injected flit rate average = 0.0489531
	minimum = 0.04475 (at node 14)
	maximum = 0.05625 (at node 13)
Accepted flit rate average= 0.0490312
	minimum = 0.04 (at node 0)
	maximum = 0.0545 (at node 5)
Injected packet length average = 1
Accepted packet length average = 1
Total in-flight flits = 13 (13 measured)
latency change    = 0.0045106
throughput change = 0.00743573
Draining all recorded packets ...
Draining remaining packets ...
Time taken is 7053 cycles
Class 0:
Packet latency average = 19.5109
	minimum = 7
	maximum = 38
Network latency average = 19.5109
	minimum = 7
	maximum = 38
Slowest packet = 43676
Flit latency average = 19.5109
	minimum = 7
	maximum = 38
Slowest flit = 43676
Fragmentation average = 0
	minimum = 0
	maximum = 0
Injected packet rate average = 0.0490625
	minimum = 0.037 (at node 7)
	maximum = 0.065 (at node 1)
Accepted packet rate average = 0.0485625
	minimum = 0.04 (at node 11)
	maximum = 0.06 (at node 8)
Injected flit rate average = 0.0490625
	minimum = 0.037 (at node 7)
	maximum = 0.065 (at node 1)
Accepted flit rate average= 0.0485625
	minimum = 0.04 (at node 11)
	maximum = 0.06 (at node 8)
Injected packet length average = 1
Accepted packet length average = 1
Total in-flight flits = 8 (0 measured)
latency change    = 1
throughput change = 1
Class 0:
Packet latency average = 19.7826
	minimum = 7
	maximum = 42
Network latency average = 19.7826
	minimum = 7
	maximum = 42
Slowest packet = 44759
Flit latency average = 19.7826
	minimum = 7
	maximum = 42
Slowest flit = 44759
Fragmentation average = 0
	minimum = 0
	maximum = 0
Injected packet rate average = 0.0499062
	minimum = 0.0395 (at node 7)
	maximum = 0.062 (at node 1)
Accepted packet rate average = 0.0491562
	minimum = 0.0425 (at node 5)
	maximum = 0.059 (at node 8)
Injected flit rate average = 0.0499062
	minimum = 0.0395 (at node 7)
	maximum = 0.062 (at node 1)
Accepted flit rate average= 0.0491562
	minimum = 0.0425 (at node 5)
	maximum = 0.059 (at node 8)
Injected packet length average = 1
Accepted packet length average = 1
Total in-flight flits = 24 (0 measured)
latency change    = 0.0137313
throughput change = 0.0120788
Class 0:
Packet latency average = 19.5233
	minimum = 7
	maximum = 40
Network latency average = 19.5221
	minimum = 7
	maximum = 40
Slowest packet = 45165
Flit latency average = 19.5221
	minimum = 7
	maximum = 40
Slowest flit = 45165
Fragmentation average = 0
	minimum = 0
	maximum = 0
Injected packet rate average = 0.0515625
	minimum = 0.03 (at node 13)
	maximum = 0.07 (at node 0)
Accepted packet rate average = 0.0523125
	minimum = 0.041 (at node 11)
	maximum = 0.073 (at node 4)
Injected flit rate average = 0.0515625
	minimum = 0.03 (at node 13)
	maximum = 0.07 (at node 0)
Accepted flit rate average= 0.0523125
	minimum = 0.041 (at node 11)
	maximum = 0.073 (at node 4)
Injected packet length average = 1
Accepted packet length average = 1
Total in-flight flits = 12 (0 measured)
latency change    = 0.0132807
throughput change = 0.0603345
Warmed up ...Time used is 3000 cycles
Class 0:
Packet latency average = 19.3109
	minimum = 7
	maximum = 42
Network latency average = 19.3109
	minimum = 7
	maximum = 42
Slowest packet = 46012
Flit latency average = 19.3444
	minimum = 7
	maximum = 42
Slowest flit = 46012
Fragmentation average = 0
	minimum = 0
	maximum = 0
Injected packet rate average = 0.051375
	minimum = 0.038 (at node 7)
	maximum = 0.066 (at node 11)
Accepted packet rate average = 0.0508125
	minimum = 0.039 (at node 6)
	maximum = 0.065 (at node 0)
Injected flit rate average = 0.051375
	minimum = 0.038 (at node 7)
	maximum = 0.066 (at node 11)
Accepted flit rate average= 0.0508125
	minimum = 0.039 (at node 6)
	maximum = 0.065 (at node 0)
Injected packet length average = 1
Accepted packet length average = 1
Total in-flight flits = 21 (21 measured)
latency change    = 0.0110009
throughput change = 0.0295203
Class 0:
Packet latency average = 19.6837
	minimum = 7
	maximum = 43
Network latency average = 19.6825
	minimum = 7
	maximum = 43
Slowest packet = 47255
Flit latency average = 19.6958
	minimum = 7
	maximum = 43
Slowest flit = 47255
Fragmentation average = 0
	minimum = 0
	maximum = 0
Injected packet rate average = 0.0538125
	minimum = 0.044 (at node 5)
	maximum = 0.063 (at node 10)
Accepted packet rate average = 0.053625
	minimum = 0.0405 (at node 6)
	maximum = 0.063 (at node 2)
Injected flit rate average = 0.0538125
	minimum = 0.044 (at node 5)
	maximum = 0.063 (at node 10)
Accepted flit rate average= 0.053625
	minimum = 0.0405 (at node 6)
	maximum = 0.063 (at node 2)
Injected packet length average = 1
Accepted packet length average = 1
Total in-flight flits = 18 (18 measured)
latency change    = 0.0189408
throughput change = 0.0524476
Class 0:
Packet latency average = 19.8635
	minimum = 7
	maximum = 43
Network latency average = 19.8623
	minimum = 7
	maximum = 43
Slowest packet = 47255
Flit latency average = 19.8706
	minimum = 7
	maximum = 43
Slowest flit = 47255
Fragmentation average = 0
	minimum = 0
	maximum = 0
Injected packet rate average = 0.0521667
	minimum = 0.0433333 (at node 5)
	maximum = 0.0596667 (at node 0)
Accepted packet rate average = 0.0521458
	minimum = 0.044 (at node 5)
	maximum = 0.0583333 (at node 15)
Injected flit rate average = 0.0521667
	minimum = 0.0433333 (at node 5)
	maximum = 0.0596667 (at node 0)
Accepted flit rate average= 0.0521458
	minimum = 0.044 (at node 5)
	maximum = 0.0583333 (at node 15)
Injected packet length average = 1
Accepted packet length average = 1
Total in-flight flits = 13 (13 measured)
latency change    = 0.00905294
throughput change = 0.028366
Class 0:
Packet latency average = 19.8066
	minimum = 7
	maximum = 43
Network latency average = 19.8057
	minimum = 7
	maximum = 43
Slowest packet = 47255
Flit latency average = 19.8121
	minimum = 7
	maximum = 43
Slowest flit = 47255
Fragmentation average = 0
	minimum = 0
	maximum = 0
Injected packet rate average = 0.0519063
	minimum = 0.0445 (at node 5)
	maximum = 0.05725 (at node 0)
Accepted packet rate average = 0.0518906
	minimum = 0.04375 (at node 6)
	maximum = 0.05725 (at node 8)
Injected flit rate average = 0.0519063
	minimum = 0.0445 (at node 5)
	maximum = 0.05725 (at node 0)
Accepted flit rate average= 0.0518906
	minimum = 0.04375 (at node 6)
	maximum = 0.05725 (at node 8)
Injected packet length average = 1
Accepted packet length average = 1
Total in-flight flits = 13 (13 measured)
latency change    = 0.00287382
throughput change = 0.0049182
Class 0:
Packet latency average = 19.7555
	minimum = 7
	maximum = 45
Network latency average = 19.7548
	minimum = 7
	maximum = 45
Slowest packet = 49220
Flit latency average = 19.7602
	minimum = 7
	maximum = 45
Slowest flit = 49220
Fragmentation average = 0
	minimum = 0
	maximum = 0
Injected packet rate average = 0.0510125
	minimum = 0.0448 (at node 5)
	maximum = 0.0558 (at node 10)
Accepted packet rate average = 0.050925
	minimum = 0.0424 (at node 6)
	maximum = 0.0554 (at node 8)
Injected flit rate average = 0.0510125
	minimum = 0.0448 (at node 5)
	maximum = 0.0558 (at node 10)
Accepted flit rate average= 0.050925
	minimum = 0.0424 (at node 6)
	maximum = 0.0554 (at node 8)
Injected packet length average = 1
Accepted packet length average = 1
Total in-flight flits = 19 (19 measured)
latency change    = 0.00258403
throughput change = 0.0189617
Draining all recorded packets ...
Draining remaining packets ...
Time taken is 8069 cycles
Class 0:
Packet latency average = 19.5834
	minimum = 7
	maximum = 40
Network latency average = 19.5834
	minimum = 7
	maximum = 40
Slowest packet = 50021
Flit latency average = 19.5834
	minimum = 7
	maximum = 40
Slowest flit = 50021
Fragmentation average = 0
	minimum = 0
	maximum = 0
Injected packet rate average = 0.0473125
	minimum = 0.031 (at node 11)
	maximum = 0.058 (at node 2)
Accepted packet rate average = 0.0460625
	minimum = 0.032 (at node 15)
	maximum = 0.06 (at node 0)
Injected flit rate average = 0.0473125
	minimum = 0.031 (at node 11)
	maximum = 0.058 (at node 2)
Accepted flit rate average= 0.0460625
	minimum = 0.032 (at node 15)
	maximum = 0.06 (at node 0)
Injected packet length average = 1
Accepted packet length average = 1
Total in-flight flits = 20 (0 measured)
latency change    = 1
throughput change = 1
Class 0:
Packet latency average = 19.611
	minimum = 7
	maximum = 40
Network latency average = 19.611
	minimum = 7
	maximum = 40
Slowest packet = 50021
Flit latency average = 19.611
	minimum = 7
	maximum = 40
Slowest flit = 50021
Fragmentation average = 0
	minimum = 0
	maximum = 0
Injected packet rate average = 0.047875
	minimum = 0.035 (at node 12)
	maximum = 0.057 (at node 6)
Accepted packet rate average = 0.0475625
	minimum = 0.037 (at node 5)
	maximum = 0.059 (at node 14)
Injected flit rate average = 0.047875
	minimum = 0.035 (at node 12)
	maximum = 0.057 (at node 6)
Accepted flit rate average= 0.0475625
	minimum = 0.037 (at node 5)
	maximum = 0.059 (at node 14)
Injected packet length average = 1
Accepted packet length average = 1
Total in-flight flits = 10 (0 measured)
latency change    = 0.00140695
throughput change = 0.0315375
Class 0:
Packet latency average = 19.6346
	minimum = 7
	maximum = 39
Network latency average = 19.6346
	minimum = 7
	maximum = 39
Slowest packet = 51652
Flit latency average = 19.6346
	minimum = 7
	maximum = 39
Slowest flit = 51652
Fragmentation average = 0
	minimum = 0
	maximum = 0
Injected packet rate average = 0.05025
	minimum = 0.039 (at node 2)
	maximum = 0.069 (at node 11)
Accepted packet rate average = 0.0494375
	minimum = 0.035 (at node 10)
	maximum = 0.063 (at node 4)
Injected flit rate average = 0.05025
	minimum = 0.039 (at node 2)
	maximum = 0.069 (at node 11)
Accepted flit rate average= 0.0494375
	minimum = 0.035 (at node 10)
	maximum = 0.063 (at node 4)
Injected packet length average = 1
Accepted packet length average = 1
Total in-flight flits = 23 (0 measured)
latency change    = 0.00120204
throughput change = 0.0379267
Warmed up ...Time used is 3000 cycles
Class 0:
Packet latency average = 19.8635
	minimum = 7
	maximum = 37
Network latency average = 19.8635
	minimum = 7
	maximum = 37
Slowest packet = 52169
Flit latency average = 19.9751
	minimum = 7
	maximum = 38
Slowest flit = 52131
Fragmentation average = 0
	minimum = 0
	maximum = 0
Injected packet rate average = 0.0471875
	minimum = 0.035 (at node 4)
	maximum = 0.064 (at node 8)
Accepted packet rate average = 0.0476875
	minimum = 0.032 (at node 13)
	maximum = 0.061 (at node 0)
Injected flit rate average = 0.0471875
	minimum = 0.035 (at node 4)
	maximum = 0.064 (at node 8)
Accepted flit rate average= 0.0476875
	minimum = 0.032 (at node 13)
	maximum = 0.061 (at node 0)
Injected packet length average = 1
Accepted packet length average = 1
Total in-flight flits = 15 (15 measured)
latency change    = 0.0115223
throughput change = 0.0366972
Class 0:
Packet latency average = 19.7001
	minimum = 7
	maximum = 40
Network latency average = 19.7001
	minimum = 7
	maximum = 40
Slowest packet = 53119
Flit latency average = 19.756
	minimum = 7
	maximum = 40
Slowest flit = 53119
Fragmentation average = 0
	minimum = 0
	maximum = 0
Injected packet rate average = 0.049375
	minimum = 0.0405 (at node 4)
	maximum = 0.06 (at node 8)
Accepted packet rate average = 0.0496875
	minimum = 0.042 (at node 13)
	maximum = 0.055 (at node 3)
Injected flit rate average = 0.049375
	minimum = 0.0405 (at node 4)
	maximum = 0.06 (at node 8)
Accepted flit rate average= 0.0496875
	minimum = 0.042 (at node 13)
	maximum = 0.055 (at node 3)
Injected packet length average = 1
Accepted packet length average = 1
Total in-flight flits = 13 (13 measured)
latency change    = 0.00829691
throughput change = 0.0402516
Class 0:
Packet latency average = 19.7396
	minimum = 7
	maximum = 40
Network latency average = 19.7396
	minimum = 7
	maximum = 40
Slowest packet = 53119
Flit latency average = 19.777
	minimum = 7
	maximum = 40
Slowest flit = 53119
Fragmentation average = 0
	minimum = 0
	maximum = 0
Injected packet rate average = 0.048875
	minimum = 0.0413333 (at node 9)
	maximum = 0.0543333 (at node 1)
Accepted packet rate average = 0.0489583
	minimum = 0.04 (at node 15)
	maximum = 0.0543333 (at node 11)
Injected flit rate average = 0.048875
	minimum = 0.0413333 (at node 9)
	maximum = 0.0543333 (at node 1)
Accepted flit rate average= 0.0489583
	minimum = 0.04 (at node 15)
	maximum = 0.0543333 (at node 11)
Injected packet length average = 1
Accepted packet length average = 1
Total in-flight flits = 19 (19 measured)
latency change    = 0.00200182
throughput change = 0.0148936
Draining all recorded packets ...
Draining remaining packets ...
Time taken is 6059 cycles
Class 0:
Packet latency average = 19.5718
	minimum = 7
	maximum = 45
Network latency average = 19.5718
	minimum = 7
	maximum = 45
Slowest packet = 55212
Flit latency average = 19.5718
	minimum = 7
	maximum = 45
Slowest flit = 55212
Fragmentation average = 0
	minimum = 0
	maximum = 0
Injected packet rate average = 0.0493125
	minimum = 0.035 (at node 3)
	maximum = 0.06 (at node 15)
Accepted packet rate average = 0.04875
	minimum = 0.033 (at node 14)
	maximum = 0.063 (at node 12)
Injected flit rate average = 0.0493125
	minimum = 0.035 (at node 3)
	maximum = 0.06 (at node 15)
Accepted flit rate average= 0.04875
	minimum = 0.033 (at node 14)
	maximum = 0.063 (at node 12)
Injected packet length average = 1
Accepted packet length average = 1
Total in-flight flits = 9 (0 measured)
latency change    = 1
throughput change = 1
Class 0:
Packet latency average = 19.7124
	minimum = 7
	maximum = 45
Network latency average = 19.7124
	minimum = 7
	maximum = 45
Slowest packet = 55212
Flit latency average = 19.7124
	minimum = 7
	maximum = 45
Slowest flit = 55212
Fragmentation average = 0
	minimum = 0
	maximum = 0
Injected packet rate average = 0.0495625
	minimum = 0.043 (at node 6)
	maximum = 0.057 (at node 15)
Accepted packet rate average = 0.0492187
	minimum = 0.0405 (at node 14)
	maximum = 0.058 (at node 6)
Injected flit rate average = 0.0495625
	minimum = 0.043 (at node 6)
	maximum = 0.057 (at node 15)
Accepted flit rate average= 0.0492187
	minimum = 0.0405 (at node 14)
	maximum = 0.058 (at node 6)
Injected packet length average = 1
Accepted packet length average = 1
Total in-flight flits = 11 (0 measured)
latency change    = 0.00713187
throughput change = 0.00952381
Class 0:
Packet latency average = 19.6654
	minimum = 7
	maximum = 38
Network latency average = 19.6654
	minimum = 7
	maximum = 38
Slowest packet = 56298
Flit latency average = 19.6654
	minimum = 7
	maximum = 38
Slowest flit = 56298
Fragmentation average = 0
	minimum = 0
	maximum = 0
Injected packet rate average = 0.0491875
	minimum = 0.034 (at node 10)
	maximum = 0.064 (at node 0)
Accepted packet rate average = 0.049125
	minimum = 0.032 (at node 1)
	maximum = 0.062 (at node 13)
Injected flit rate average = 0.0491875
	minimum = 0.034 (at node 10)
	maximum = 0.064 (at node 0)
Accepted flit rate average= 0.049125
	minimum = 0.032 (at node 1)
	maximum = 0.062 (at node 13)
Injected packet length average = 1
Accepted packet length average = 1
Total in-flight flits = 12 (0 measured)
latency change    = 0.0023893
throughput change = 0.0019084
Warmed up ...Time used is 3000 cycles
Class 0:
Packet latency average = 19.8154
	minimum = 7
	maximum = 38
Network latency average = 19.8154
	minimum = 7
	maximum = 38
Slowest packet = 57403
Flit latency average = 19.8892
	minimum = 7
	maximum = 38
Slowest flit = 56889
Fragmentation average = 0
	minimum = 0
	maximum = 0
Injected packet rate average = 0.0486875
	minimum = 0.04 (at node 3)
	maximum = 0.067 (at node 0)
Accepted packet rate average = 0.0485
	minimum = 0.034 (at node 10)
	maximum = 0.058 (at node 7)
Injected flit rate average = 0.0486875
	minimum = 0.04 (at node 3)
	maximum = 0.067 (at node 0)
Accepted flit rate average= 0.0485
	minimum = 0.034 (at node 10)
	maximum = 0.058 (at node 7)
Injected packet length average = 1
Accepted packet length average = 1
Total in-flight flits = 15 (15 measured)
latency change    = 0.00757241
throughput change = 0.0128866
Class 0:
Packet latency average = 19.8299
	minimum = 7
	maximum = 39
Network latency average = 19.8299
	minimum = 7
	maximum = 39
Slowest packet = 58423
Flit latency average = 19.8664
	minimum = 7
	maximum = 39
Slowest flit = 58423
Fragmentation average = 0
	minimum = 0
	maximum = 0
Injected packet rate average = 0.0490625
	minimum = 0.0425 (at node 1)
	maximum = 0.056 (at node 0)
Accepted packet rate average = 0.048875
	minimum = 0.0375 (at node 10)
	maximum = 0.055 (at node 3)
Injected flit rate average = 0.0490625
	minimum = 0.0425 (at node 1)
	maximum = 0.056 (at node 0)
Accepted flit rate average= 0.048875
	minimum = 0.0375 (at node 10)
	maximum = 0.055 (at node 3)
Injected packet length average = 1
Accepted packet length average = 1
Total in-flight flits = 18 (18 measured)
latency change    = 0.000728793
throughput change = 0.00767263
Class 0:
Packet latency average = 19.8229
	minimum = 7
	maximum = 40
Network latency average = 19.8229
	minimum = 7
	maximum = 40
Slowest packet = 59072
Flit latency average = 19.8468
	minimum = 7
	maximum = 40
Slowest flit = 59072
Fragmentation average = 0
	minimum = 0
	maximum = 0
Injected packet rate average = 0.0496875
	minimum = 0.0446667 (at node 1)
	maximum = 0.056 (at node 0)
Accepted packet rate average = 0.0496458
	minimum = 0.0426667 (at node 10)
	maximum = 0.055 (at node 7)
Injected flit rate average = 0.0496875
	minimum = 0.0446667 (at node 1)
	maximum = 0.056 (at node 0)
Accepted flit rate average= 0.0496458
	minimum = 0.0426667 (at node 10)
	maximum = 0.055 (at node 7)
Injected packet length average = 1
Accepted packet length average = 1
Total in-flight flits = 14 (14 measured)
latency change    = 0.000355012
throughput change = 0.0155266
Draining all recorded packets ...
Draining remaining packets ...
Time taken is 6055 cycles
Class 0:
Packet latency average = 19.1704
	minimum = 7
	maximum = 39
Network latency average = 19.1704
	minimum = 7
	maximum = 39
Slowest packet = 59321
Flit latency average = 19.1704
	minimum = 7
	maximum = 39
Slowest flit = 59321
Fragmentation average = 0
	minimum = 0
	maximum = 0
Injected packet rate average = 0.0490625
	minimum = 0.036 (at node 14)
	maximum = 0.061 (at node 0)
Accepted packet rate average = 0.0480625
	minimum = 0.037 (at node 13)
	maximum = 0.063 (at node 6)
Injected flit rate average = 0.0490625
	minimum = 0.036 (at node 14)
	maximum = 0.061 (at node 0)
Accepted flit rate average= 0.0480625
	minimum = 0.037 (at node 13)
	maximum = 0.063 (at node 6)
Injected packet length average = 1
Accepted packet length average = 1
Total in-flight flits = 16 (0 measured)
latency change    = 1
throughput change = 1
Class 0:
Packet latency average = 19.4005
	minimum = 7
	maximum = 41
Network latency average = 19.4005
	minimum = 7
	maximum = 41
Slowest packet = 60809
Flit latency average = 19.4005
	minimum = 7
	maximum = 41
Slowest flit = 60809
Fragmentation average = 0
	minimum = 0
	maximum = 0
Injected packet rate average = 0.0497812
	minimum = 0.043 (at node 15)
	maximum = 0.0605 (at node 5)
Accepted packet rate average = 0.0491562
	minimum = 0.043 (at node 5)
	maximum = 0.0565 (at node 14)
Injected flit rate average = 0.0497812
	minimum = 0.043 (at node 15)
	maximum = 0.0605 (at node 5)
Accepted flit rate average= 0.0491562
	minimum = 0.043 (at node 5)
	maximum = 0.0565 (at node 14)
Injected packet length average = 1
Accepted packet length average = 1
Total in-flight flits = 20 (0 measured)
latency change    = 0.0118635
throughput change = 0.0222505
Class 0:
Packet latency average = 19.815
	minimum = 7
	maximum = 44
Network latency average = 19.815
	minimum = 7
	maximum = 44
Slowest packet = 61142
Flit latency average = 19.815
	minimum = 7
	maximum = 44
Slowest flit = 61142
Fragmentation average = 0
	minimum = 0
	maximum = 0
Injected packet rate average = 0.05125
	minimum = 0.039 (at node 4)
	maximum = 0.06 (at node 14)
Accepted packet rate average = 0.0516875
	minimum = 0.04 (at node 15)
	maximum = 0.07 (at node 11)
Injected flit rate average = 0.05125
	minimum = 0.039 (at node 4)
	maximum = 0.06 (at node 14)
Accepted flit rate average= 0.0516875
	minimum = 0.04 (at node 15)
	maximum = 0.07 (at node 11)
Injected packet length average = 1
Accepted packet length average = 1
Total in-flight flits = 13 (0 measured)
latency change    = 0.0209178
throughput change = 0.0489722
Warmed up ...Time used is 3000 cycles
Class 0:
Packet latency average = 19.9734
	minimum = 7
	maximum = 38
Network latency average = 19.9734
	minimum = 7
	maximum = 38
Slowest packet = 62523
Flit latency average = 20.0119
	minimum = 7
	maximum = 38
Slowest flit = 62523
Fragmentation average = 0
	minimum = 0
	maximum = 0
Injected packet rate average = 0.05275
	minimum = 0.038 (at node 8)
	maximum = 0.067 (at node 7)
Accepted packet rate average = 0.0525625
	minimum = 0.045 (at node 1)
	maximum = 0.068 (at node 5)
Injected flit rate average = 0.05275
	minimum = 0.038 (at node 8)
	maximum = 0.067 (at node 7)
Accepted flit rate average= 0.0525625
	minimum = 0.045 (at node 1)
	maximum = 0.068 (at node 5)
Injected packet length average = 1
Accepted packet length average = 1
Total in-flight flits = 16 (16 measured)
latency change    = 0.00793234
throughput change = 0.0166468
Class 0:
Packet latency average = 20.0839
	minimum = 7
	maximum = 47
Network latency average = 20.0839
	minimum = 7
	maximum = 47
Slowest packet = 62822
Flit latency average = 20.1023
	minimum = 7
	maximum = 47
Slowest flit = 62822
Fragmentation average = 0
	minimum = 0
	maximum = 0
Injected packet rate average = 0.052625
	minimum = 0.044 (at node 3)
	maximum = 0.0625 (at node 7)
Accepted packet rate average = 0.0525625
	minimum = 0.046 (at node 6)
	maximum = 0.062 (at node 5)
Injected flit rate average = 0.052625
	minimum = 0.044 (at node 3)
	maximum = 0.0625 (at node 7)
Accepted flit rate average= 0.0525625
	minimum = 0.046 (at node 6)
	maximum = 0.062 (at node 5)
Injected packet length average = 1
Accepted packet length average = 1
Total in-flight flits = 15 (15 measured)
latency change    = 0.00549956
throughput change = 0
Class 0:
Packet latency average = 19.9233
	minimum = 7
	maximum = 47
Network latency average = 19.9233
	minimum = 7
	maximum = 47
Slowest packet = 62822
Flit latency average = 19.9365
	minimum = 7
	maximum = 47
Slowest flit = 62822
Fragmentation average = 0
	minimum = 0
	maximum = 0
Injected packet rate average = 0.0522708
	minimum = 0.044 (at node 13)
	maximum = 0.059 (at node 7)
Accepted packet rate average = 0.052125
	minimum = 0.0476667 (at node 6)
	maximum = 0.0606667 (at node 5)
Injected flit rate average = 0.0522708
	minimum = 0.044 (at node 13)
	maximum = 0.059 (at node 7)
Accepted flit rate average= 0.052125
	minimum = 0.0476667 (at node 6)
	maximum = 0.0606667 (at node 5)
Injected packet length average = 1
Accepted packet length average = 1
Total in-flight flits = 20 (20 measured)
latency change    = 0.00806194
throughput change = 0.00839329
Draining all recorded packets ...
Draining remaining packets ...
Time taken is 6049 cycles
Class 0:
Packet latency average = 19.9448
	minimum = 7
	maximum = 41
Network latency average = 19.9448
	minimum = 7
	maximum = 41
Slowest packet = 64476
Flit latency average = 19.9448
	minimum = 7
	maximum = 41
Slowest flit = 64476
Fragmentation average = 0
	minimum = 0
	maximum = 0
Injected packet rate average = 0.052
	minimum = 0.039 (at node 6)
	maximum = 0.063 (at node 11)
Accepted packet rate average = 0.0509375
	minimum = 0.041 (at node 9)
	maximum = 0.068 (at node 15)
Injected flit rate average = 0.052
	minimum = 0.039 (at node 6)
	maximum = 0.063 (at node 11)
Accepted flit rate average= 0.0509375
	minimum = 0.041 (at node 9)
	maximum = 0.068 (at node 15)
Injected packet length average = 1
Accepted packet length average = 1
Total in-flight flits = 17 (0 measured)
latency change    = 1
throughput change = 1
Class 0:
Packet latency average = 19.7238
	minimum = 7
	maximum = 41
Network latency average = 19.7238
	minimum = 7
	maximum = 41
Slowest packet = 64476
Flit latency average = 19.7238
	minimum = 7
	maximum = 41
Slowest flit = 64476
Fragmentation average = 0
	minimum = 0
	maximum = 0
Injected packet rate average = 0.0514375
	minimum = 0.0385 (at node 9)
	maximum = 0.065 (at node 1)
Accepted packet rate average = 0.0509063
	minimum = 0.046 (at node 14)
	maximum = 0.057 (at node 1)
Injected flit rate average = 0.0514375
	minimum = 0.0385 (at node 9)
	maximum = 0.065 (at node 1)
Accepted flit rate average= 0.0509063
	minimum = 0.046 (at node 14)
	maximum = 0.057 (at node 1)
Injected packet length average = 1
Accepted packet length average = 1
Total in-flight flits = 17 (0 measured)
latency change    = 0.0112062
throughput change = 0.000613874
Class 0:
Packet latency average = 19.4062
	minimum = 7
	maximum = 37
Network latency average = 19.4062
	minimum = 7
	maximum = 37
Slowest packet = 65881
Flit latency average = 19.4062
	minimum = 7
	maximum = 37
Slowest flit = 65881
Fragmentation average = 0
	minimum = 0
	maximum = 0
Injected packet rate average = 0.0505625
	minimum = 0.032 (at node 3)
	maximum = 0.079 (at node 5)
Accepted packet rate average = 0.050625
	minimum = 0.039 (at node 6)
	maximum = 0.073 (at node 14)
Injected flit rate average = 0.0505625
	minimum = 0.032 (at node 3)
	maximum = 0.079 (at node 5)
Accepted flit rate average= 0.050625
	minimum = 0.039 (at node 6)
	maximum = 0.073 (at node 14)
Injected packet length average = 1
Accepted packet length average = 1
Total in-flight flits = 16 (0 measured)
latency change    = 0.0163651
throughput change = 0.00555556
Warmed up ...Time used is 3000 cycles
Class 0:
Packet latency average = 19.1129
	minimum = 7
	maximum = 37
Network latency average = 19.1129
	minimum = 7
	maximum = 37
Slowest packet = 66714
Flit latency average = 19.2018
	minimum = 7
	maximum = 37
Slowest flit = 66677
Fragmentation average = 0
	minimum = 0
	maximum = 0
Injected packet rate average = 0.0485625
	minimum = 0.038 (at node 14)
	maximum = 0.057 (at node 4)
Accepted packet rate average = 0.048625
	minimum = 0.039 (at node 8)
	maximum = 0.059 (at node 3)
Injected flit rate average = 0.0485625
	minimum = 0.038 (at node 14)
	maximum = 0.057 (at node 4)
Accepted flit rate average= 0.048625
	minimum = 0.039 (at node 8)
	maximum = 0.059 (at node 3)
Injected packet length average = 1
Accepted packet length average = 1
Total in-flight flits = 15 (15 measured)
latency change    = 0.0153463
throughput change = 0.0411311
Class 0:
Packet latency average = 19.3338
	minimum = 7
	maximum = 40
Network latency average = 19.3338
	minimum = 7
	maximum = 40
Slowest packet = 68219
Flit latency average = 19.376
	minimum = 7
	maximum = 40
Slowest flit = 68219
Fragmentation average = 0
	minimum = 0
	maximum = 0
Injected packet rate average = 0.0485312
	minimum = 0.038 (at node 9)
	maximum = 0.0575 (at node 7)
Accepted packet rate average = 0.0485312
	minimum = 0.0395 (at node 1)
	maximum = 0.0555 (at node 11)
Injected flit rate average = 0.0485312
	minimum = 0.038 (at node 9)
	maximum = 0.0575 (at node 7)
Accepted flit rate average= 0.0485312
	minimum = 0.0395 (at node 1)
	maximum = 0.0555 (at node 11)
Injected packet length average = 1
Accepted packet length average = 1
Total in-flight flits = 16 (16 measured)
latency change    = 0.0114259
throughput change = 0.00193175
Class 0:
Packet latency average = 19.4366
	minimum = 7
	maximum = 40
Network latency average = 19.4366
	minimum = 7
	maximum = 40
Slowest packet = 68219
Flit latency average = 19.4641
	minimum = 7
	maximum = 40
Slowest flit = 68219
Fragmentation average = 0
	minimum = 0
	maximum = 0
Injected packet rate average = 0.0485
	minimum = 0.0416667 (at node 14)
	maximum = 0.0536667 (at node 4)
Accepted packet rate average = 0.0484375
	minimum = 0.042 (at node 8)
	maximum = 0.055 (at node 11)
Injected flit rate average = 0.0485
	minimum = 0.0416667 (at node 14)
	maximum = 0.0536667 (at node 4)
Accepted flit rate average= 0.0484375
	minimum = 0.042 (at node 8)
	maximum = 0.055 (at node 11)
Injected packet length average = 1
Accepted packet length average = 1
Total in-flight flits = 19 (19 measured)
latency change    = 0.00528826
throughput change = 0.00193548
Draining all recorded packets ...
Draining remaining packets ...
Time taken is 6056 cycles
Class 0:
Packet latency average = 20.083
	minimum = 7
	maximum = 38
Network latency average = 20.083
	minimum = 7
	maximum = 38
Slowest packet = 69142
Flit latency average = 20.083
	minimum = 7
	maximum = 38
Slowest flit = 69142
Fragmentation average = 0
	minimum = 0
	maximum = 0
Injected packet rate average = 0.051625
	minimum = 0.041 (at node 8)
	maximum = 0.061 (at node 13)
Accepted packet rate average = 0.0504375
	minimum = 0.038 (at node 1)
	maximum = 0.066 (at node 11)
Injected flit rate average = 0.051625
	minimum = 0.041 (at node 8)
	maximum = 0.061 (at node 13)
Accepted flit rate average= 0.0504375
	minimum = 0.038 (at node 1)
	maximum = 0.066 (at node 11)
Injected packet length average = 1
Accepted packet length average = 1
Total in-flight flits = 19 (0 measured)
latency change    = 1
throughput change = 1
Class 0:
Packet latency average = 19.7785
	minimum = 7
	maximum = 38
Network latency average = 19.7785
	minimum = 7
	maximum = 38
Slowest packet = 69142
Flit latency average = 19.7785
	minimum = 7
	maximum = 38
Slowest flit = 69142
Fragmentation average = 0
	minimum = 0
	maximum = 0
Injected packet rate average = 0.0513125
	minimum = 0.0425 (at node 6)
	maximum = 0.0585 (at node 11)
Accepted packet rate average = 0.0507812
	minimum = 0.0465 (at node 4)
	maximum = 0.057 (at node 14)
Injected flit rate average = 0.0513125
	minimum = 0.0425 (at node 6)
	maximum = 0.0585 (at node 11)
Accepted flit rate average= 0.0507812
	minimum = 0.0465 (at node 4)
	maximum = 0.057 (at node 14)
Injected packet length average = 1
Accepted packet length average = 1
Total in-flight flits = 17 (0 measured)
latency change    = 0.0153987
throughput change = 0.00676923
Class 0:
Packet latency average = 19.6865
	minimum = 7
	maximum = 39
Network latency average = 19.6865
	minimum = 7
	maximum = 39
Slowest packet = 70744
Flit latency average = 19.6865
	minimum = 7
	maximum = 39
Slowest flit = 70744
Fragmentation average = 0
	minimum = 0
	maximum = 0
Injected packet rate average = 0.049375
	minimum = 0.037 (at node 7)
	maximum = 0.064 (at node 8)
Accepted packet rate average = 0.04925
	minimum = 0.038 (at node 15)
	maximum = 0.061 (at node 10)
Injected flit rate average = 0.049375
	minimum = 0.037 (at node 7)
	maximum = 0.064 (at node 8)
Accepted flit rate average= 0.04925
	minimum = 0.038 (at node 15)
	maximum = 0.061 (at node 10)
Injected packet length average = 1
Accepted packet length average = 1
Total in-flight flits = 19 (0 measured)
latency change    = 0.00466884
throughput change = 0.0310914
Warmed up ...Time used is 3000 cycles
Class 0:
Packet latency average = 19.3869
	minimum = 7
	maximum = 37
Network latency average = 19.3869
	minimum = 7
	maximum = 37
Slowest packet = 71863
Flit latency average = 19.4452
	minimum = 7
	maximum = 37
Slowest flit = 71863
Fragmentation average = 0
	minimum = 0
	maximum = 0
Injected packet rate average = 0.0485
	minimum = 0.037 (at node 8)
	maximum = 0.06 (at node 15)
Accepted packet rate average = 0.049
	minimum = 0.037 (at node 14)
	maximum = 0.059 (at node 0)
Injected flit rate average = 0.0485
	minimum = 0.037 (at node 8)
	maximum = 0.06 (at node 15)
Accepted flit rate average= 0.049
	minimum = 0.037 (at node 14)
	maximum = 0.059 (at node 0)
Injected packet length average = 1
Accepted packet length average = 1
Total in-flight flits = 11 (11 measured)
latency change    = 0.0154547
throughput change = 0.00510204
Class 0:
Packet latency average = 19.5143
	minimum = 7
	maximum = 37
Network latency average = 19.5143
	minimum = 7
	maximum = 37
Slowest packet = 71863
Flit latency average = 19.5414
	minimum = 7
	maximum = 37
Slowest flit = 71863
Fragmentation average = 0
	minimum = 0
	maximum = 0
Injected packet rate average = 0.0496562
	minimum = 0.0425 (at node 8)
	maximum = 0.056 (at node 15)
Accepted packet rate average = 0.049875
	minimum = 0.043 (at node 5)
	maximum = 0.059 (at node 2)
Injected flit rate average = 0.0496562
	minimum = 0.0425 (at node 8)
	maximum = 0.056 (at node 15)
Accepted flit rate average= 0.049875
	minimum = 0.043 (at node 5)
	maximum = 0.059 (at node 2)
Injected packet length average = 1
Accepted packet length average = 1
Total in-flight flits = 12 (12 measured)
latency change    = 0.00652546
throughput change = 0.0175439
Class 0:
Packet latency average = 19.5646
	minimum = 7
	maximum = 42
Network latency average = 19.5646
	minimum = 7
	maximum = 42
Slowest packet = 73364
Flit latency average = 19.5824
	minimum = 7
	maximum = 42
Slowest flit = 73364
Fragmentation average = 0
	minimum = 0
	maximum = 0
Injected packet rate average = 0.049375
	minimum = 0.045 (at node 8)
	maximum = 0.0533333 (at node 13)
Accepted packet rate average = 0.0494375
	minimum = 0.044 (at node 15)
	maximum = 0.0583333 (at node 2)
Injected flit rate average = 0.049375
[...]
Accepted packet rate average = 0.0511875
	minimum = 0.042 (at node 0)
	maximum = 0.061 (at node 11)
Injected flit rate average = 0.0506875
	minimum = 0.037 (at node 6)
	maximum = 0.066 (at node 1)
Accepted flit rate average= 0.0511875
	minimum = 0.042 (at node 0)
	maximum = 0.061 (at node 11)
Injected packet length average = 1
Accepted packet length average = 1
Total in-flight flits = 9 (9 measured)
latency change    = 0.00345885
throughput change = 0.028083
Class 0:
Packet latency average = 19.5912
	minimum = 7
	maximum = 38
Network latency average = 19.5912
	minimum = 7
	maximum = 38
Slowest packet = 500324
Flit latency average = 19.6288
	minimum = 7
	maximum = 38
Slowest flit = 500324
Fragmentation average = 0
	minimum = 0
	maximum = 0
Injected packet rate average = 0.05125
	minimum = 0.0415 (at node 13)
	maximum = 0.0655 (at node 0)
Accepted packet rate average = 0.0514375
	minimum = 0.0415 (at node 12)
	maximum = 0.0595 (at node 8)
Injected flit rate average = 0.05125
	minimum = 0.0415 (at node 13)
	maximum = 0.0655 (at node 0)
Accepted flit rate average= 0.0514375
	minimum = 0.0415 (at node 12)
	maximum = 0.0595 (at node 8)
Injected packet length average = 1
Accepted packet length average = 1
Total in-flight flits = 11 (11 measured)
latency change    = 0.00616655
throughput change = 0.00486027
Class 0:
Packet latency average = 19.5394
	minimum = 7
	maximum = 38
Network latency average = 19.5394
	minimum = 7
	maximum = 38
Slowest packet = 500324
Flit latency average = 19.5648
	minimum = 7
	maximum = 38
Slowest flit = 500324
Fragmentation average = 0
	minimum = 0
	maximum = 0
Injected packet rate average = 0.0515
	minimum = 0.0433333 (at node 7)
	maximum = 0.0613333 (at node 1)
Accepted packet rate average = 0.0514167
	minimum = 0.047 (at node 0)
	maximum = 0.0576667 (at node 8)
Injected flit rate average = 0.0515
	minimum = 0.0433333 (at node 7)
	maximum = 0.0613333 (at node 1)
Accepted flit rate average= 0.0514167
	minimum = 0.047 (at node 0)
	maximum = 0.0576667 (at node 8)
Injected packet length average = 1
Accepted packet length average = 1
Total in-flight flits = 21 (21 measured)
latency change    = 0.00265047
throughput change = 0.000405186
Draining all recorded packets ...
Draining remaining packets ...
Time taken is 6055 cycles
Class 0:
Packet latency average = 19.5992
	minimum = 7
	maximum = 37
Network latency average = 19.5992
	minimum = 7
	maximum = 37
Slowest packet = 502595
Flit latency average = 19.5992
	minimum = 7
	maximum = 37
Slowest flit = 502595
Fragmentation average = 0
	minimum = 0
	maximum = 0
Injected packet rate average = 0.0484375
	minimum = 0.026 (at node 5)
	maximum = 0.058 (at node 2)
Accepted packet rate average = 0.0475625
	minimum = 0.037 (at node 3)
	maximum = 0.065 (at node 13)
Injected flit rate average = 0.0484375
	minimum = 0.026 (at node 5)
	maximum = 0.058 (at node 2)
Accepted flit rate average= 0.0475625
	minimum = 0.037 (at node 3)
	maximum = 0.065 (at node 13)
Injected packet length average = 1
Accepted packet length average = 1
Total in-flight flits = 14 (0 measured)
latency change    = 1
throughput change = 1
Class 0:
Packet latency average = 19.4592
	minimum = 7
	maximum = 38
Network latency average = 19.4592
	minimum = 7
	maximum = 38
Slowest packet = 503411
Flit latency average = 19.4592
	minimum = 7
	maximum = 38
Slowest flit = 503411
Fragmentation average = 0
	minimum = 0
	maximum = 0
Injected packet rate average = 0.0486875
	minimum = 0.0375 (at node 5)
	maximum = 0.057 (at node 0)
Accepted packet rate average = 0.0483125
	minimum = 0.042 (at node 4)
	maximum = 0.0535 (at node 14)
Injected flit rate average = 0.0486875
	minimum = 0.0375 (at node 5)
	maximum = 0.057 (at node 0)
Accepted flit rate average= 0.0483125
	minimum = 0.042 (at node 4)
	maximum = 0.0535 (at node 14)
Injected packet length average = 1
Accepted packet length average = 1
Total in-flight flits = 12 (0 measured)
latency change    = 0.00719256
throughput change = 0.0155239
Class 0:
Packet latency average = 19.405
	minimum = 7
	maximum = 38
Network latency average = 19.405
	minimum = 7
	maximum = 38
Slowest packet = 504350
Flit latency average = 19.405
	minimum = 7
	maximum = 38
Slowest flit = 504350
Fragmentation average = 0
	minimum = 0
	maximum = 0
Injected packet rate average = 0.047125
	minimum = 0.033 (at node 1)
	maximum = 0.064 (at node 11)
Accepted packet rate average = 0.0470625
	minimum = 0.04 (at node 2)
	maximum = 0.059 (at node 14)
Injected flit rate average = 0.047125
	minimum = 0.033 (at node 1)
	maximum = 0.064 (at node 11)
Accepted flit rate average= 0.0470625
	minimum = 0.04 (at node 2)
	maximum = 0.059 (at node 14)
Injected packet length average = 1
Accepted packet length average = 1
Total in-flight flits = 13 (0 measured)
latency change    = 0.00279325
throughput change = 0.0265604
Warmed up ...Time used is 3000 cycles
Class 0:
Packet latency average = 18.947
	minimum = 7
	maximum = 38
Network latency average = 18.947
	minimum = 7
	maximum = 38
Slowest packet = 504968
Flit latency average = 18.9866
	minimum = 7
	maximum = 38
Slowest flit = 504968
Fragmentation average = 0
	minimum = 0
	maximum = 0
Injected packet rate average = 0.0471875
	minimum = 0.038 (at node 3)
	maximum = 0.062 (at node 13)
Accepted packet rate average = 0.0468125
	minimum = 0.036 (at node 12)
	maximum = 0.065 (at node 2)
Injected flit rate average = 0.0471875
	minimum = 0.038 (at node 3)
	maximum = 0.062 (at node 13)
Accepted flit rate average= 0.0468125
	minimum = 0.036 (at node 12)
	maximum = 0.065 (at node 2)
Injected packet length average = 1
Accepted packet length average = 1
Total in-flight flits = 19 (19 measured)
latency change    = 0.0241746
throughput change = 0.00534045
Class 0:
Packet latency average = 19.1626
	minimum = 7
	maximum = 40
Network latency average = 19.1626
	minimum = 7
	maximum = 40
Slowest packet = 506074
Flit latency average = 19.1797
	minimum = 7
	maximum = 40
Slowest flit = 506074
Fragmentation average = 0
	minimum = 0
	maximum = 0
Injected packet rate average = 0.0489375
	minimum = 0.0405 (at node 2)
	maximum = 0.058 (at node 13)
Accepted packet rate average = 0.0490312
	minimum = 0.039 (at node 12)
	maximum = 0.0635 (at node 2)
Injected flit rate average = 0.0489375
	minimum = 0.0405 (at node 2)
	maximum = 0.058 (at node 13)
Accepted flit rate average= 0.0490312
	minimum = 0.039 (at node 12)
	maximum = 0.0635 (at node 2)
Injected packet length average = 1
Accepted packet length average = 1
Total in-flight flits = 10 (10 measured)
latency change    = 0.0112503
throughput change = 0.0452518
Class 0:
Packet latency average = 19.3413
	minimum = 7
	maximum = 40
Network latency average = 19.3413
	minimum = 7
	maximum = 40
Slowest packet = 506074
Flit latency average = 19.3516
	minimum = 7
	maximum = 40
Slowest flit = 506074
Fragmentation average = 0
	minimum = 0
	maximum = 0
Injected packet rate average = 0.0497708
	minimum = 0.0413333 (at node 3)
	maximum = 0.056 (at node 13)
Accepted packet rate average = 0.0497708
	minimum = 0.0416667 (at node 11)
	maximum = 0.0576667 (at node 2)
Injected flit rate average = 0.0497708
	minimum = 0.0413333 (at node 3)
	maximum = 0.056 (at node 13)
Accepted flit rate average= 0.0497708
	minimum = 0.0416667 (at node 11)
	maximum = 0.0576667 (at node 2)
Injected packet length average = 1
Accepted packet length average = 1
Total in-flight flits = 13 (13 measured)
latency change    = 0.00924102
throughput change = 0.0148598
Draining all recorded packets ...
Draining remaining packets ...
Time taken is 6036 cycles
Class 0:
Packet latency average = 19.5389
	minimum = 7
	maximum = 38
Network latency average = 19.5389
	minimum = 7
	maximum = 38
Slowest packet = 507421
Flit latency average = 19.5389
	minimum = 7
	maximum = 38
Slowest flit = 507421
Fragmentation average = 0
	minimum = 0
	maximum = 0
Injected packet rate average = 0.0504375
	minimum = 0.039 (at node 8)
	maximum = 0.066 (at node 1)
Accepted packet rate average = 0.04975
	minimum = 0.038 (at node 14)
	maximum = 0.056 (at node 13)
Injected flit rate average = 0.0504375
	minimum = 0.039 (at node 8)
	maximum = 0.066 (at node 1)
Accepted flit rate average= 0.04975
	minimum = 0.038 (at node 14)
	maximum = 0.056 (at node 13)
Injected packet length average = 1
Accepted packet length average = 1
Total in-flight flits = 11 (0 measured)
latency change    = 1
throughput change = 1
Class 0:
Packet latency average = 19.6552
	minimum = 7
	maximum = 39
Network latency average = 19.6552
	minimum = 7
	maximum = 39
Slowest packet = 508090
Flit latency average = 19.6552
	minimum = 7
	maximum = 39
Slowest flit = 508090
Fragmentation average = 0
	minimum = 0
	maximum = 0
Injected packet rate average = 0.051375
	minimum = 0.0445 (at node 11)
	maximum = 0.057 (at node 1)
Accepted packet rate average = 0.0508438
	minimum = 0.0435 (at node 9)
	maximum = 0.0625 (at node 11)
Injected flit rate average = 0.051375
	minimum = 0.0445 (at node 11)
	maximum = 0.057 (at node 1)
Accepted flit rate average= 0.0508438
	minimum = 0.0435 (at node 9)
	maximum = 0.0625 (at node 11)
Injected packet length average = 1
Accepted packet length average = 1
Total in-flight flits = 17 (0 measured)
latency change    = 0.00591441
throughput change = 0.021512
Class 0:
Packet latency average = 19.3697
	minimum = 7
	maximum = 40
Network latency average = 19.3697
	minimum = 7
	maximum = 40
Slowest packet = 509421
Flit latency average = 19.3697
	minimum = 7
	maximum = 40
Slowest flit = 509421
Fragmentation average = 0
	minimum = 0
	maximum = 0
Injected packet rate average = 0.0523125
	minimum = 0.037 (at node 10)
	maximum = 0.07 (at node 3)
Accepted packet rate average = 0.0520625
	minimum = 0.041 (at node 8)
	maximum = 0.062 (at node 11)
Injected flit rate average = 0.0523125
	minimum = 0.037 (at node 10)
	maximum = 0.07 (at node 3)
Accepted flit rate average= 0.0520625
	minimum = 0.041 (at node 8)
	maximum = 0.062 (at node 11)
Injected packet length average = 1
Accepted packet length average = 1
Total in-flight flits = 21 (0 measured)
latency change    = 0.0147367
throughput change = 0.0234094
Warmed up ...Time used is 3000 cycles
Class 0:
Packet latency average = 19.4844
	minimum = 7
	maximum = 44
Network latency average = 19.4844
	minimum = 7
	maximum = 44
Slowest packet = 510003
Flit latency average = 19.5894
	minimum = 7
	maximum = 44
Slowest flit = 510003
Fragmentation average = 0
	minimum = 0
	maximum = 0
Injected packet rate average = 0.049125
	minimum = 0.041 (at node 0)
	maximum = 0.056 (at node 10)
Accepted packet rate average = 0.0493125
	minimum = 0.039 (at node 4)
	maximum = 0.066 (at node 14)
Injected flit rate average = 0.049125
	minimum = 0.041 (at node 0)
	maximum = 0.056 (at node 10)
Accepted flit rate average= 0.0493125
	minimum = 0.039 (at node 4)
	maximum = 0.066 (at node 14)
Injected packet length average = 1
Accepted packet length average = 1
Total in-flight flits = 18 (18 measured)
latency change    = 0.00588303
throughput change = 0.0557668
Class 0:
Packet latency average = 19.6469
	minimum = 7
	maximum = 44
Network latency average = 19.6469
	minimum = 7
	maximum = 44
Slowest packet = 510003
Flit latency average = 19.6963
	minimum = 7
	maximum = 44
Slowest flit = 510003
Fragmentation average = 0
	minimum = 0
	maximum = 0
Injected packet rate average = 0.0501562
	minimum = 0.042 (at node 5)
	maximum = 0.055 (at node 9)
Accepted packet rate average = 0.0503125
	minimum = 0.0435 (at node 8)
	maximum = 0.0635 (at node 14)
Injected flit rate average = 0.0501562
	minimum = 0.042 (at node 5)
	maximum = 0.055 (at node 9)
Accepted flit rate average= 0.0503125
	minimum = 0.0435 (at node 8)
	maximum = 0.0635 (at node 14)
Injected packet length average = 1
Accepted packet length average = 1
Total in-flight flits = 16 (16 measured)
latency change    = 0.00827471
throughput change = 0.0198758
Class 0:
Packet latency average = 19.751
	minimum = 7
	maximum = 46
Network latency average = 19.751
	minimum = 7
	maximum = 46
Slowest packet = 511845
Flit latency average = 19.7831
	minimum = 7
	maximum = 46
Slowest flit = 511845
Fragmentation average = 0
	minimum = 0
	maximum = 0
Injected packet rate average = 0.0500208
	minimum = 0.044 (at node 11)
	maximum = 0.055 (at node 8)
Accepted packet rate average = 0.0501458
	minimum = 0.044 (at node 8)
	maximum = 0.0566667 (at node 14)
Injected flit rate average = 0.0500208
	minimum = 0.044 (at node 11)
	maximum = 0.055 (at node 8)
Accepted flit rate average= 0.0501458
	minimum = 0.044 (at node 8)
	maximum = 0.0566667 (at node 14)
Injected packet length average = 1
Accepted packet length average = 1
Total in-flight flits = 15 (15 measured)
latency change    = 0.00527061
throughput change = 0.00332364
Class 0:
Packet latency average = 19.8275
	minimum = 7
	maximum = 46
Network latency average = 19.8275
	minimum = 7
	maximum = 46
Slowest packet = 511845
Flit latency average = 19.8511
	minimum = 7
	maximum = 46
Slowest flit = 511845
Fragmentation average = 0
	minimum = 0
	maximum = 0
Injected packet rate average = 0.0499375
	minimum = 0.04375 (at node 5)
	maximum = 0.055 (at node 3)
Accepted packet rate average = 0.0500469
	minimum = 0.04275 (at node 9)
	maximum = 0.0555 (at node 12)
Injected flit rate average = 0.0499375
	minimum = 0.04375 (at node 5)
	maximum = 0.055 (at node 3)
Accepted flit rate average= 0.0500469
	minimum = 0.04275 (at node 9)
	maximum = 0.0555 (at node 12)
Injected packet length average = 1
Accepted packet length average = 1
Total in-flight flits = 14 (14 measured)
latency change    = 0.00385421
throughput change = 0.00197731
Draining all recorded packets ...
Draining remaining packets ...
Time taken is 7064 cycles
Class 0:
Packet latency average = 19.6714
	minimum = 7
	maximum = 43
Network latency average = 19.6714
	minimum = 7
	maximum = 43
Slowest packet = 513209
Flit latency average = 19.6714
	minimum = 7
	maximum = 43
Slowest flit = 513209
Fragmentation average = 0
	minimum = 0
	maximum = 0
Injected packet rate average = 0.0493125
	minimum = 0.039 (at node 2)
	maximum = 0.06 (at node 13)
Accepted packet rate average = 0.048125
	minimum = 0.032 (at node 5)
	maximum = 0.064 (at node 4)
Injected flit rate average = 0.0493125
	minimum = 0.039 (at node 2)
	maximum = 0.06 (at node 13)
Accepted flit rate average= 0.048125
	minimum = 0.032 (at node 5)
	maximum = 0.064 (at node 4)
Injected packet length average = 1
Accepted packet length average = 1
Total in-flight flits = 19 (0 measured)
latency change    = 1
throughput change = 1
Class 0:
Packet latency average = 19.7237
	minimum = 7
	maximum = 43
Network latency average = 19.7237
	minimum = 7
	maximum = 43
Slowest packet = 513209
Flit latency average = 19.7237
	minimum = 7
	maximum = 43
Slowest flit = 513209
Fragmentation average = 0
	minimum = 0
	maximum = 0
Injected packet rate average = 0.0496562
	minimum = 0.044 (at node 2)
	maximum = 0.0545 (at node 3)
Accepted packet rate average = 0.0490937
	minimum = 0.039 (at node 15)
	maximum = 0.06 (at node 8)
Injected flit rate average = 0.0496562
	minimum = 0.044 (at node 2)
	maximum = 0.0545 (at node 3)
Accepted flit rate average= 0.0490937
	minimum = 0.039 (at node 15)
	maximum = 0.06 (at node 8)
Injected packet length average = 1
Accepted packet length average = 1
Total in-flight flits = 18 (0 measured)
latency change    = 0.00265235
throughput change = 0.0197327
Class 0:
Packet latency average = 19.5213
	minimum = 7
	maximum = 39
Network latency average = 19.5213
	minimum = 7
	maximum = 39
Slowest packet = 515039
Flit latency average = 19.5213
	minimum = 7
	maximum = 39
Slowest flit = 515039
Fragmentation average = 0
	minimum = 0
	maximum = 0
Injected packet rate average = 0.0506875
	minimum = 0.037 (at node 1)
	maximum = 0.067 (at node 7)
Accepted packet rate average = 0.0513125
	minimum = 0.039 (at node 6)
	maximum = 0.063 (at node 8)
Injected flit rate average = 0.0506875
	minimum = 0.037 (at node 1)
	maximum = 0.067 (at node 7)
Accepted flit rate average= 0.0513125
	minimum = 0.039 (at node 6)
	maximum = 0.063 (at node 8)
Injected packet length average = 1
Accepted packet length average = 1
Total in-flight flits = 8 (0 measured)
latency change    = 0.0103696
throughput change = 0.04324
Warmed up ...Time used is 3000 cycles
Class 0:
Packet latency average = 19.7669
	minimum = 7
	maximum = 50
Network latency average = 19.7669
	minimum = 7
	maximum = 50
Slowest packet = 515419
Flit latency average = 19.8141
	minimum = 7
	maximum = 50
Slowest flit = 515419
Fragmentation average = 0
	minimum = 0
	maximum = 0
Injected packet rate average = 0.0518125
	minimum = 0.042 (at node 15)
	maximum = 0.07 (at node 2)
Accepted packet rate average = 0.0514375
	minimum = 0.043 (at node 7)
	maximum = 0.059 (at node 15)
Injected flit rate average = 0.0518125
	minimum = 0.042 (at node 15)
	maximum = 0.07 (at node 2)
Accepted flit rate average= 0.0514375
	minimum = 0.043 (at node 7)
	maximum = 0.059 (at node 15)
Injected packet length average = 1
Accepted packet length average = 1
Total in-flight flits = 14 (14 measured)
latency change    = 0.0124226
throughput change = 0.00243013
Class 0:
Packet latency average = 19.8524
	minimum = 7
	maximum = 50
Network latency average = 19.8524
	minimum = 7
	maximum = 50
Slowest packet = 515419
Flit latency average = 19.8762
	minimum = 7
	maximum = 50
Slowest flit = 515419
Fragmentation average = 0
	minimum = 0
	maximum = 0
Injected packet rate average = 0.0503125
	minimum = 0.043 (at node 8)
	maximum = 0.0625 (at node 2)
Accepted packet rate average = 0.0502187
	minimum = 0.0435 (at node 9)
	maximum = 0.0555 (at node 6)
Injected flit rate average = 0.0503125
	minimum = 0.043 (at node 8)
	maximum = 0.0625 (at node 2)
Accepted flit rate average= 0.0502187
	minimum = 0.0435 (at node 9)
	maximum = 0.0555 (at node 6)
Injected packet length average = 1
Accepted packet length average = 1
Total in-flight flits = 11 (11 measured)
latency change    = 0.00430863
throughput change = 0.0242688
Class 0:
Packet latency average = 19.7888
	minimum = 7
	maximum = 50
Network latency average = 19.7888
	minimum = 7
	maximum = 50
Slowest packet = 515419
Flit latency average = 19.8053
	minimum = 7
	maximum = 50
Slowest flit = 515419
Fragmentation average = 0
	minimum = 0
	maximum = 0
Injected packet rate average = 0.0493542
	minimum = 0.0426667 (at node 8)
	maximum = 0.0573333 (at node 2)
Accepted packet rate average = 0.0491042
	minimum = 0.0436667 (at node 9)
	maximum = 0.057 (at node 2)
Injected flit rate average = 0.0493542
	minimum = 0.0426667 (at node 8)
	maximum = 0.0573333 (at node 2)
Accepted flit rate average= 0.0491042
	minimum = 0.0436667 (at node 9)
	maximum = 0.057 (at node 2)
Injected packet length average = 1
Accepted packet length average = 1
Total in-flight flits = 20 (20 measured)
latency change    = 0.00321198
throughput change = 0.0226983
Draining all recorded packets ...
Draining remaining packets ...
Time taken is 6061 cycles
====== Overall Traffic Statistics ======
====== Traffic class 0 ======
Packet latency average = 19.6437 (100 samples)
	minimum = 7 (100 samples)
	maximum = 42.85 (100 samples)
Network latency average = 19.6437 (100 samples)
	minimum = 7 (100 samples)
	maximum = 42.85 (100 samples)
Flit latency average = 19.6563 (100 samples)
	minimum = 7 (100 samples)
	maximum = 42.9 (100 samples)
Fragmentation average = 0 (100 samples)
	minimum = 0 (100 samples)
	maximum = 0 (100 samples)
Injected packet rate average = 0.0499443 (100 samples)
	minimum = 0.0431472 (100 samples)
	maximum = 0.0567343 (100 samples)
Accepted packet rate average = 0.0499284 (100 samples)
	minimum = 0.0431015 (100 samples)
	maximum = 0.0567278 (100 samples)
Injected flit rate average = 0.0499443 (100 samples)
	minimum = 0.0431472 (100 samples)
	maximum = 0.0567343 (100 samples)
Accepted flit rate average = 0.0499284 (100 samples)
	minimum = 0.0431015 (100 samples)
	maximum = 0.0567278 (100 samples)
Injected packet size average = 1 (100 samples)
Accepted packet size average = 1 (100 samples)
Hops average = 3.49995 (100 samples)
Total run time 7.45877
