BEGIN Configuration File: /tmp/bs_1138183_324789.cfg
topology = mesh;
k = 4;
n = 2;
routing_function = dor;
num_vcs = 4;
vc_buf_size = 4;
wait_for_tail_credit = 1;
vc_allocator = islip;
sw_allocator = islip;
alloc_iters = 1;
credit_delay = 2;
routing_delay = 1;
vc_alloc_delay = 1;
sw_alloc_delay = 1;
input_speedup = 2;
output_speedup = 1;
internal_speedup = 1.0;
traffic = uniform;
packet_size = 1;
sim_type = latency;
injection_rate = 0.01;
warmup_periods = 3;
sample_period = 1000;
sim_count = 100;
seed = 4;

END Configuration File: /tmp/bs_1138183_324789.cfg
Class 0:
Packet latency average = 19.4146
	minimum = 7
	maximum = 37
Network latency average = 19.4146
	minimum = 7
	maximum = 37
Slowest packet = 50
Flit latency average = 19.4146
	minimum = 7
	maximum = 37
Slowest flit = 50
Fragmentation average = 0
	minimum = 0
	maximum = 0
Injected packet rate average = 0.0103125
	minimum = 0.005 (at node 0)
	maximum = 0.015 (at node 10)
Accepted packet rate average = 0.01025
	minimum = 0.002 (at node 1)
	maximum = 0.017 (at node 3)
Injected flit rate average = 0.0103125
	minimum = 0.005 (at node 0)
	maximum = 0.015 (at node 10)
Accepted flit rate average= 0.01025
	minimum = 0.002 (at node 1)
	maximum = 0.017 (at node 3)
Injected packet length average = 1
Accepted packet length average = 1
Total in-flight flits = 1 (0 measured)
latency change    = 1
throughput change = 1
Class 0:
Packet latency average = 19.546
	minimum = 7
	maximum = 37
Network latency average = 19.546
	minimum = 7
	maximum = 37
Slowest packet = 50
Flit latency average = 19.546
	minimum = 7
	maximum = 37
Slowest flit = 50
Fragmentation average = 0
	minimum = 0
	maximum = 0
Injected packet rate average = 0.0099375
	minimum = 0.0055 (at node 11)
	maximum = 0.015 (at node 4)
Accepted packet rate average = 0.00984375
	minimum = 0.0075 (at node 1)
	maximum = 0.013 (at node 3)
Injected flit rate average = 0.0099375
	minimum = 0.0055 (at node 11)
	maximum = 0.015 (at node 4)
Accepted flit rate average= 0.00984375
	minimum = 0.0075 (at node 1)
	maximum = 0.013 (at node 3)
Injected packet length average = 1
Accepted packet length average = 1
Total in-flight flits = 3 (0 measured)
latency change    = 0.00672247
throughput change = 0.0412698
Class 0:
Packet latency average = 18.875
	minimum = 7
	maximum = 37
Network latency average = 18.875
	minimum = 7
	maximum = 37
Slowest packet = 378
Flit latency average = 18.875
	minimum = 7
	maximum = 37
Slowest flit = 378
Fragmentation average = 0
	minimum = 0
	maximum = 0
Injected packet rate average = 0.0085625
	minimum = 0.004 (at node 6)
	maximum = 0.015 (at node 7)
Accepted packet rate average = 0.0085
	minimum = 0.003 (at node 4)
	maximum = 0.014 (at node 14)
Injected flit rate average = 0.0085625
	minimum = 0.004 (at node 6)
	maximum = 0.015 (at node 7)
Accepted flit rate average= 0.0085
	minimum = 0.003 (at node 4)
	maximum = 0.014 (at node 14)
Injected packet length average = 1
Accepted packet length average = 1
Total in-flight flits = 4 (0 measured)
latency change    = 0.0355514
throughput change = 0.158088
Warmed up ...Time used is 3000 cycles
Class 0:
Packet latency average = 19.1615
	minimum = 7
	maximum = 37
Network latency average = 19.1615
	minimum = 7
	maximum = 37
Slowest packet = 475
Flit latency average = 19.1091
	minimum = 7
	maximum = 37
Slowest flit = 475
Fragmentation average = 0
	minimum = 0
	maximum = 0
Injected packet rate average = 0.0104375
	minimum = 0.004 (at node 12)
	maximum = 0.018 (at node 6)
Accepted packet rate average = 0.0103125
	minimum = 0.003 (at node 2)
	maximum = 0.016 (at node 1)
Injected flit rate average = 0.0104375
	minimum = 0.004 (at node 12)
	maximum = 0.018 (at node 6)
Accepted flit rate average= 0.0103125
	minimum = 0.003 (at node 2)
	maximum = 0.016 (at node 1)
Injected packet length average = 1
Accepted packet length average = 1
Total in-flight flits = 6 (6 measured)
latency change    = 0.0149514
throughput change = 0.175758
Class 0:
Packet latency average = 19.5953
	minimum = 7
	maximum = 38
Network latency average = 19.5953
	minimum = 7
	maximum = 38
Slowest packet = 785
Flit latency average = 19.5652
	minimum = 7
	maximum = 38
Slowest flit = 785
Fragmentation average = 0
	minimum = 0
	maximum = 0
Injected packet rate average = 0.0108125
	minimum = 0.0055 (at node 4)
	maximum = 0.0155 (at node 6)
Accepted packet rate average = 0.0107812
	minimum = 0.007 (at node 2)
	maximum = 0.014 (at node 12)
Injected flit rate average = 0.0108125
	minimum = 0.0055 (at node 4)
	maximum = 0.0155 (at node 6)
Accepted flit rate average= 0.0107812
	minimum = 0.007 (at node 2)
	maximum = 0.014 (at node 12)
Injected packet length average = 1
Accepted packet length average = 1
Total in-flight flits = 5 (5 measured)
latency change    = 0.0221388
throughput change = 0.0434783
Class 0:
Packet latency average = 19.2729
	minimum = 7
	maximum = 38
Network latency average = 19.2729
	minimum = 7
	maximum = 38
Slowest packet = 785
Flit latency average = 19.2549
	minimum = 7
	maximum = 38
Slowest flit = 785
Fragmentation average = 0
	minimum = 0
	maximum = 0
Injected packet rate average = 0.0104792
	minimum = 0.00633333 (at node 4)
	maximum = 0.0143333 (at node 14)
Accepted packet rate average = 0.0105417
	minimum = 0.007 (at node 2)
	maximum = 0.0133333 (at node 12)
Injected flit rate average = 0.0104792
	minimum = 0.00633333 (at node 4)
	maximum = 0.0143333 (at node 14)
Accepted flit rate average= 0.0105417
	minimum = 0.007 (at node 2)
	maximum = 0.0133333 (at node 12)
Injected packet length average = 1
Accepted packet length average = 1
Total in-flight flits = 1 (1 measured)
latency change    = 0.0167281
throughput change = 0.0227273
Class 0:
Packet latency average = 19.6086
	minimum = 7
	maximum = 38
Network latency average = 19.6086
	minimum = 7
	maximum = 38
Slowest packet = 785
Flit latency average = 19.5932
	minimum = 7
	maximum = 38
Slowest flit = 785
Fragmentation average = 0
	minimum = 0
	maximum = 0
Injected packet rate average = 0.0106094
	minimum = 0.0075 (at node 4)
	maximum = 0.01375 (at node 10)
Accepted packet rate average = 0.0106406
	minimum = 0.008 (at node 14)
	maximum = 0.012 (at node 12)
Injected flit rate average = 0.0106094
	minimum = 0.0075 (at node 4)
	maximum = 0.01375 (at node 10)
Accepted flit rate average= 0.0106406
	minimum = 0.008 (at node 14)
	maximum = 0.012 (at node 12)
Injected packet length average = 1
Accepted packet length average = 1
Total in-flight flits = 2 (2 measured)
latency change    = 0.017118
throughput change = 0.00930005
Draining all recorded packets ...
Draining remaining packets ...
Time taken is 7028 cycles
Class 0:
Packet latency average = 20.0867
	minimum = 7
	maximum = 32
Network latency average = 20.0867
	minimum = 7
	maximum = 32
Slowest packet = 1146
Flit latency average = 20.0867
	minimum = 7
	maximum = 32
Slowest flit = 1146
Fragmentation average = 0
	minimum = 0
	maximum = 0
Injected packet rate average = 0.011
	minimum = 0.006 (at node 2)
	maximum = 0.016 (at node 10)
Accepted packet rate average = 0.0108125
	minimum = 0.005 (at node 11)
	maximum = 0.015 (at node 9)
Injected flit rate average = 0.011
	minimum = 0.006 (at node 2)
	maximum = 0.016 (at node 10)
Accepted flit rate average= 0.0108125
	minimum = 0.005 (at node 11)
	maximum = 0.015 (at node 9)
Injected packet length average = 1
Accepted packet length average = 1
Total in-flight flits = 3 (0 measured)
latency change    = 1
throughput change = 1
Class 0:
Packet latency average = 20.2401
	minimum = 7
	maximum = 37
Network latency average = 20.2401
	minimum = 7
	maximum = 37
Slowest packet = 1326
Flit latency average = 20.2401
	minimum = 7
	maximum = 37
Slowest flit = 1326
Fragmentation average = 0
	minimum = 0
	maximum = 0
Injected packet rate average = 0.010375
	minimum = 0.006 (at node 15)
	maximum = 0.0135 (at node 10)
Accepted packet rate average = 0.0102813
	minimum = 0.008 (at node 2)
	maximum = 0.013 (at node 4)
Injected flit rate average = 0.010375
	minimum = 0.006 (at node 15)
	maximum = 0.0135 (at node 10)
Accepted flit rate average= 0.0102813
	minimum = 0.008 (at node 2)
	maximum = 0.013 (at node 4)
Injected packet length average = 1
Accepted packet length average = 1
Total in-flight flits = 3 (0 measured)
latency change    = 0.00757982
throughput change = 0.0516717
Class 0:
Packet latency average = 19.7727
	minimum = 7
	maximum = 37
Network latency average = 19.7727
	minimum = 7
	maximum = 37
Slowest packet = 1475
Flit latency average = 19.7727
	minimum = 7
	maximum = 37
Slowest flit = 1475
Fragmentation average = 0
	minimum = 0
	maximum = 0
Injected packet rate average = 0.009625
	minimum = 0.005 (at node 0)
	maximum = 0.016 (at node 15)
Accepted packet rate average = 0.009625
	minimum = 0.005 (at node 4)
	maximum = 0.019 (at node 10)
Injected flit rate average = 0.009625
	minimum = 0.005 (at node 0)
	maximum = 0.016 (at node 15)
Accepted flit rate average= 0.009625
	minimum = 0.005 (at node 4)
	maximum = 0.019 (at node 10)
Injected packet length average = 1
Accepted packet length average = 1
Total in-flight flits = 3 (0 measured)
latency change    = 0.0236383
throughput change = 0.0681818
Warmed up ...Time used is 3000 cycles
Class 0:
Packet latency average = 19.5232
	minimum = 7
	maximum = 37
Network latency average = 19.5232
	minimum = 7
	maximum = 37
Slowest packet = 1638
Flit latency average = 19.474
	minimum = 7
	maximum = 37
Slowest flit = 1638
Fragmentation average = 0
	minimum = 0
	maximum = 0
Injected packet rate average = 0.009625
	minimum = 0.005 (at node 12)
	maximum = 0.015 (at node 10)
Accepted packet rate average = 0.009625
	minimum = 0.006 (at node 10)
	maximum = 0.018 (at node 0)
Injected flit rate average = 0.009625
	minimum = 0.005 (at node 12)
	maximum = 0.015 (at node 10)
Accepted flit rate average= 0.009625
	minimum = 0.006 (at node 10)
	maximum = 0.018 (at node 0)
Injected packet length average = 1
Accepted packet length average = 1
Total in-flight flits = 3 (3 measured)
latency change    = 0.0127822
throughput change = 0
Class 0:
Packet latency average = 19.2083
	minimum = 7
	maximum = 37
Network latency average = 19.2083
	minimum = 7
	maximum = 37
Slowest packet = 1638
Flit latency average = 19.1856
	minimum = 7
	maximum = 37
Slowest flit = 1638
Fragmentation average = 0
	minimum = 0
	maximum = 0
Injected packet rate average = 0.00909375
	minimum = 0.0065 (at node 12)
	maximum = 0.013 (at node 5)
Accepted packet rate average = 0.00909375
	minimum = 0.007 (at node 10)
	maximum = 0.0135 (at node 0)
Injected flit rate average = 0.00909375
	minimum = 0.0065 (at node 12)
	maximum = 0.013 (at node 5)
Accepted flit rate average= 0.00909375
	minimum = 0.007 (at node 10)
	maximum = 0.0135 (at node 0)
Injected packet length average = 1
Accepted packet length average = 1
Total in-flight flits = 3 (3 measured)
latency change    = 0.0163911
throughput change = 0.0584192
Class 0:
Packet latency average = 19.3742
	minimum = 7
	maximum = 37
Network latency average = 19.3742
	minimum = 7
	maximum = 37
Slowest packet = 1638
Flit latency average = 19.3584
	minimum = 7
	maximum = 37
Slowest flit = 1638
Fragmentation average = 0
	minimum = 0
	maximum = 0
Injected packet rate average = 0.00941667
	minimum = 0.00633333 (at node 7)
	maximum = 0.0136667 (at node 5)
Accepted packet rate average = 0.00941667
	minimum = 0.00666667 (at node 10)
	maximum = 0.0123333 (at node 0)
Injected flit rate average = 0.00941667
	minimum = 0.00633333 (at node 7)
	maximum = 0.0136667 (at node 5)
Accepted flit rate average= 0.00941667
	minimum = 0.00666667 (at node 10)
	maximum = 0.0123333 (at node 0)
Injected packet length average = 1
Accepted packet length average = 1
Total in-flight flits = 3 (3 measured)
latency change    = 0.00855941
throughput change = 0.034292
Class 0:
Packet latency average = 19.2324
	minimum = 7
	maximum = 37
Network latency average = 19.2324
	minimum = 7
	maximum = 37
Slowest packet = 1638
Flit latency average = 19.2215
	minimum = 7
	maximum = 37
Slowest flit = 1638
Fragmentation average = 0
	minimum = 0
	maximum = 0
Injected packet rate average = 0.00959375
	minimum = 0.007 (at node 12)
	maximum = 0.0125 (at node 5)
Accepted packet rate average = 0.00959375
	minimum = 0.00775 (at node 5)
	maximum = 0.01225 (at node 0)
Injected flit rate average = 0.00959375
	minimum = 0.007 (at node 12)
	maximum = 0.0125 (at node 5)
Accepted flit rate average= 0.00959375
	minimum = 0.00775 (at node 5)
	maximum = 0.01225 (at node 0)
Injected packet length average = 1
Accepted packet length average = 1
Total in-flight flits = 3 (3 measured)
latency change    = 0.00737084
throughput change = 0.0184582
Class 0:
Packet latency average = 19.4278
	minimum = 7
	maximum = 37
Network latency average = 19.4278
	minimum = 7
	maximum = 37
Slowest packet = 1638
Flit latency average = 19.418
	minimum = 7
	maximum = 37
Slowest flit = 1638
Fragmentation average = 0
	minimum = 0
	maximum = 0
Injected packet rate average = 0.0093
	minimum = 0.0064 (at node 12)
	maximum = 0.0116 (at node 8)
Accepted packet rate average = 0.0093
	minimum = 0.0076 (at node 5)
	maximum = 0.0114 (at node 0)
Injected flit rate average = 0.0093
	minimum = 0.0064 (at node 12)
	maximum = 0.0116 (at node 8)
Accepted flit rate average= 0.0093
	minimum = 0.0076 (at node 5)
	maximum = 0.0114 (at node 0)
Injected packet length average = 1
Accepted packet length average = 1
Total in-flight flits = 3 (3 measured)
latency change    = 0.0100575
throughput change = 0.031586
Draining all recorded packets ...
Draining remaining packets ...
Time taken is 8051 cycles
Class 0:
Packet latency average = 20.2994
	minimum = 7
	maximum = 37
Network latency average = 20.2994
	minimum = 7
	maximum = 37
Slowest packet = 2375
Flit latency average = 20.2994
	minimum = 7
	maximum = 37
Slowest flit = 2375
Fragmentation average = 0
	minimum = 0
	maximum = 0
Injected packet rate average = 0.01075
	minimum = 0.007 (at node 4)
	maximum = 0.016 (at node 11)
Accepted packet rate average = 0.0104375
	minimum = 0.006 (at node 1)
	maximum = 0.014 (at node 6)
Injected flit rate average = 0.01075
	minimum = 0.007 (at node 4)
	maximum = 0.016 (at node 11)
Accepted flit rate average= 0.0104375
	minimum = 0.006 (at node 1)
	maximum = 0.014 (at node 6)
Injected packet length average = 1
Accepted packet length average = 1
Total in-flight flits = 5 (0 measured)
latency change    = 1
throughput change = 1
Class 0:
Packet latency average = 20.1209
	minimum = 7
	maximum = 38
Network latency average = 20.1209
	minimum = 7
	maximum = 38
Slowest packet = 2598
Flit latency average = 20.1209
	minimum = 7
	maximum = 38
Slowest flit = 2598
Fragmentation average = 0
	minimum = 0
	maximum = 0
Injected packet rate average = 0.0107812
	minimum = 0.008 (at node 6)
	maximum = 0.015 (at node 12)
Accepted packet rate average = 0.0105938
	minimum = 0.007 (at node 7)
	maximum = 0.0145 (at node 6)
Injected flit rate average = 0.0107812
	minimum = 0.008 (at node 6)
	maximum = 0.015 (at node 12)
Accepted flit rate average= 0.0105938
	minimum = 0.007 (at node 7)
	maximum = 0.0145 (at node 6)
Injected packet length average = 1
Accepted packet length average = 1
Total in-flight flits = 6 (0 measured)
latency change    = 0.00886923
throughput change = 0.0147493
Class 0:
Packet latency average = 20.259
	minimum = 7
	maximum = 37
Network latency average = 20.259
	minimum = 7
	maximum = 37
Slowest packet = 2709
Flit latency average = 20.259
	minimum = 7
	maximum = 37
Slowest flit = 2709
Fragmentation average = 0
	minimum = 0
	maximum = 0
Injected packet rate average = 0.01025
	minimum = 0.004 (at node 2)
	maximum = 0.018 (at node 15)
Accepted packet rate average = 0.010375
	minimum = 0.006 (at node 12)
	maximum = 0.021 (at node 11)
Injected flit rate average = 0.01025
	minimum = 0.004 (at node 2)
	maximum = 0.018 (at node 15)
Accepted flit rate average= 0.010375
	minimum = 0.006 (at node 12)
	maximum = 0.021 (at node 11)
Injected packet length average = 1
Accepted packet length average = 1
Total in-flight flits = 4 (0 measured)
latency change    = 0.00681633
throughput change = 0.0210843
Warmed up ...Time used is 3000 cycles
Class 0:
Packet latency average = 20.2384
	minimum = 7
	maximum = 37
Network latency average = 20.2384
	minimum = 7
	maximum = 37
Slowest packet = 2884
Flit latency average = 20.392
	minimum = 7
	maximum = 37
Slowest flit = 2874
Fragmentation average = 0
	minimum = 0
	maximum = 0
Injected packet rate average = 0.010875
	minimum = 0.004 (at node 14)
	maximum = 0.018 (at node 0)
Accepted packet rate average = 0.011
	minimum = 0.004 (at node 9)
	maximum = 0.016 (at node 8)
Injected flit rate average = 0.010875
	minimum = 0.004 (at node 14)
	maximum = 0.018 (at node 0)
Accepted flit rate average= 0.011
	minimum = 0.004 (at node 9)
	maximum = 0.016 (at node 8)
Injected packet length average = 1
Accepted packet length average = 1
Total in-flight flits = 2 (2 measured)
latency change    = 0.00102103
throughput change = 0.0568182
Class 0:
Packet latency average = 20.0714
	minimum = 7
	maximum = 37
Network latency average = 20.0714
	minimum = 7
	maximum = 37
Slowest packet = 2884
Flit latency average = 20.1529
	minimum = 7
	maximum = 37
Slowest flit = 2874
Fragmentation average = 0
	minimum = 0
	maximum = 0
Injected packet rate average = 0.0106563
	minimum = 0.007 (at node 5)
	maximum = 0.0155 (at node 4)
Accepted packet rate average = 0.010625
	minimum = 0.006 (at node 9)
	maximum = 0.014 (at node 15)
Injected flit rate average = 0.0106563
	minimum = 0.007 (at node 5)
	maximum = 0.0155 (at node 4)
Accepted flit rate average= 0.010625
	minimum = 0.006 (at node 9)
	maximum = 0.014 (at node 15)
Injected packet length average = 1
Accepted packet length average = 1
Total in-flight flits = 5 (5 measured)
latency change    = 0.00831747
throughput change = 0.0352941
Class 0:
Packet latency average = 19.9449
	minimum = 7
	maximum = 37
Network latency average = 19.9449
	minimum = 7
	maximum = 37
Slowest packet = 2884
Flit latency average = 20
	minimum = 7
	maximum = 37
Slowest flit = 2874
Fragmentation average = 0
	minimum = 0
	maximum = 0
Injected packet rate average = 0.0106042
	minimum = 0.007 (at node 5)
	maximum = 0.0153333 (at node 4)
Accepted packet rate average = 0.0106667
	minimum = 0.00733333 (at node 9)
	maximum = 0.0146667 (at node 13)
Injected flit rate average = 0.0106042
	minimum = 0.007 (at node 5)
	maximum = 0.0153333 (at node 4)
Accepted flit rate average= 0.0106667
	minimum = 0.00733333 (at node 9)
	maximum = 0.0146667 (at node 13)
Injected packet length average = 1
Accepted packet length average = 1
Total in-flight flits = 1 (1 measured)
latency change    = 0.00634482
throughput change = 0.00390625
Class 0:
Packet latency average = 19.6825
	minimum = 7
	maximum = 37
Network latency average = 19.6825
	minimum = 7
	maximum = 37
Slowest packet = 2884
Flit latency average = 19.7257
	minimum = 7
	maximum = 37
Slowest flit = 2874
Fragmentation average = 0
	minimum = 0
	maximum = 0
Injected packet rate average = 0.0105625
	minimum = 0.00725 (at node 5)
	maximum = 0.01575 (at node 4)
Accepted packet rate average = 0.0105938
	minimum = 0.00825 (at node 9)
	maximum = 0.0145 (at node 13)
Injected flit rate average = 0.0105625
	minimum = 0.00725 (at node 5)
	maximum = 0.01575 (at node 4)
Accepted flit rate average= 0.0105938
	minimum = 0.00825 (at node 9)
	maximum = 0.0145 (at node 13)
Injected packet length average = 1
Accepted packet length average = 1
Total in-flight flits = 2 (2 measured)
latency change    = 0.0133311
throughput change = 0.00688299
Draining all recorded packets ...
Draining remaining packets ...
Time taken is 7046 cycles
Class 0:
Packet latency average = 19.0786
	minimum = 7
	maximum = 37
Network latency average = 19.0786
	minimum = 7
	maximum = 37
Slowest packet = 3660
Flit latency average = 19.0786
	minimum = 7
	maximum = 37
Slowest flit = 3660
Fragmentation average = 0
	minimum = 0
	maximum = 0
Injected packet rate average = 0.0088125
	minimum = 0.004 (at node 7)
	maximum = 0.016 (at node 15)
Accepted packet rate average = 0.00875
	minimum = 0.003 (at node 9)
	maximum = 0.013 (at node 0)
Injected flit rate average = 0.0088125
	minimum = 0.004 (at node 7)
	maximum = 0.016 (at node 15)
Accepted flit rate average= 0.00875
	minimum = 0.003 (at node 9)
	maximum = 0.013 (at node 0)
Injected packet length average = 1
Accepted packet length average = 1
Total in-flight flits = 1 (0 measured)
latency change    = 1
throughput change = 1
Class 0:
Packet latency average = 19.5397
	minimum = 7
	maximum = 37
Network latency average = 19.5397
	minimum = 7
	maximum = 37
Slowest packet = 3660
Flit latency average = 19.5397
	minimum = 7
	maximum = 37
Slowest flit = 3660
Fragmentation average = 0
	minimum = 0
	maximum = 0
Injected packet rate average = 0.00953125
	minimum = 0.0045 (at node 7)
	maximum = 0.0135 (at node 15)
Accepted packet rate average = 0.0094375
	minimum = 0.0055 (at node 3)
	maximum = 0.0135 (at node 8)
Injected flit rate average = 0.00953125
	minimum = 0.0045 (at node 7)
	maximum = 0.0135 (at node 15)
Accepted flit rate average= 0.0094375
	minimum = 0.0055 (at node 3)
	maximum = 0.0135 (at node 8)
Injected packet length average = 1
Accepted packet length average = 1
Total in-flight flits = 3 (0 measured)
latency change    = 0.0236013
throughput change = 0.0728477
Class 0:
Packet latency average = 20.8025
	minimum = 7
	maximum = 37
Network latency average = 20.8025
	minimum = 7
	maximum = 37
Slowest packet = 3873
Flit latency average = 20.8025
	minimum = 7
	maximum = 37
Slowest flit = 3873
Fragmentation average = 0
	minimum = 0
	maximum = 0
Injected packet rate average = 0.0100625
	minimum = 0.004 (at node 9)
	maximum = 0.016 (at node 8)
Accepted packet rate average = 0.010125
	minimum = 0.005 (at node 10)
	maximum = 0.019 (at node 0)
Injected flit rate average = 0.0100625
	minimum = 0.004 (at node 9)
	maximum = 0.016 (at node 8)
Accepted flit rate average= 0.010125
	minimum = 0.005 (at node 10)
	maximum = 0.019 (at node 0)
Injected packet length average = 1
Accepted packet length average = 1
Total in-flight flits = 2 (0 measured)
latency change    = 0.0607012
throughput change = 0.0679012
Warmed up ...Time used is 3000 cycles
Class 0:
Packet latency average = 20.0201
	minimum = 7
	maximum = 37
Network latency average = 20.0201
	minimum = 7
	maximum = 37
Slowest packet = 4079
Flit latency average = 20.1126
	minimum = 7
	maximum = 37
Slowest flit = 4023
Fragmentation average = 0
	minimum = 0
	maximum = 0
Injected packet rate average = 0.0095625
	minimum = 0.006 (at node 4)
	maximum = 0.015 (at node 13)
Accepted packet rate average = 0.0094375
	minimum = 0.005 (at node 0)
	maximum = 0.015 (at node 8)
Injected flit rate average = 0.0095625
	minimum = 0.006 (at node 4)
	maximum = 0.015 (at node 13)
Accepted flit rate average= 0.0094375
	minimum = 0.005 (at node 0)
	maximum = 0.015 (at node 8)
Injected packet length average = 1
Accepted packet length average = 1
Total in-flight flits = 4 (4 measured)
latency change    = 0.0390774
throughput change = 0.0728477
Class 0:
Packet latency average = 19.4423
	minimum = 7
	maximum = 37
Network latency average = 19.4423
	minimum = 7
	maximum = 37
Slowest packet = 4079
Flit latency average = 19.4904
	minimum = 7
	maximum = 37
Slowest flit = 4023
Fragmentation average = 0
	minimum = 0
	maximum = 0
Injected packet rate average = 0.00978125
	minimum = 0.0075 (at node 11)
	maximum = 0.0125 (at node 14)
Accepted packet rate average = 0.0098125
	minimum = 0.006 (at node 0)
	maximum = 0.013 (at node 3)
Injected flit rate average = 0.00978125
	minimum = 0.0075 (at node 11)
	maximum = 0.0125 (at node 14)
Accepted flit rate average= 0.0098125
	minimum = 0.006 (at node 0)
	maximum = 0.013 (at node 3)
Injected packet length average = 1
Accepted packet length average = 1
Total in-flight flits = 1 (1 measured)
latency change    = 0.0297201
throughput change = 0.0382166
Class 0:
Packet latency average = 19.3088
	minimum = 7
	maximum = 37
Network latency average = 19.3088
	minimum = 7
	maximum = 37
Slowest packet = 4079
Flit latency average = 19.3401
	minimum = 7
	maximum = 37
Slowest flit = 4023
Fragmentation average = 0
	minimum = 0
	maximum = 0
Injected packet rate average = 0.01025
	minimum = 0.008 (at node 12)
	maximum = 0.012 (at node 7)
Accepted packet rate average = 0.0102292
	minimum = 0.00733333 (at node 0)
	maximum = 0.0126667 (at node 7)
Injected flit rate average = 0.01025
	minimum = 0.008 (at node 12)
	maximum = 0.012 (at node 7)
Accepted flit rate average= 0.0102292
	minimum = 0.00733333 (at node 0)
	maximum = 0.0126667 (at node 7)
Injected packet length average = 1
Accepted packet length average = 1
Total in-flight flits = 3 (3 measured)
latency change    = 0.00691469
throughput change = 0.0407332
Class 0:
Packet latency average = 19.483
	minimum = 7
	maximum = 37
Network latency average = 19.483
	minimum = 7
	maximum = 37
Slowest packet = 4079
Flit latency average = 19.5062
	minimum = 7
	maximum = 37
Slowest flit = 4023
Fragmentation average = 0
	minimum = 0
	maximum = 0
Injected packet rate average = 0.0101094
	minimum = 0.00825 (at node 3)
	maximum = 0.012 (at node 7)
Accepted packet rate average = 0.010125
	minimum = 0.0075 (at node 5)
	maximum = 0.013 (at node 7)
Injected flit rate average = 0.0101094
	minimum = 0.00825 (at node 3)
	maximum = 0.012 (at node 7)
Accepted flit rate average= 0.010125
	minimum = 0.0075 (at node 5)
	maximum = 0.013 (at node 7)
Injected packet length average = 1
Accepted packet length average = 1
Total in-flight flits = 1 (1 measured)
latency change    = 0.00894005
throughput change = 0.0102881
Draining all recorded packets ...
Draining remaining packets ...
Time taken is 7035 cycles
Class 0:
Packet latency average = 19.7256
	minimum = 7
	maximum = 37
Network latency average = 19.7256
	minimum = 7
	maximum = 37
Slowest packet = 4701
Flit latency average = 19.7256
	minimum = 7
	maximum = 37
Slowest flit = 4701
Fragmentation average = 0
	minimum = 0
	maximum = 0
Injected packet rate average = 0.0104375
	minimum = 0.007 (at node 0)
	maximum = 0.016 (at node 6)
Accepted packet rate average = 0.01025
	minimum = 0.005 (at node 1)
	maximum = 0.017 (at node 13)
Injected flit rate average = 0.0104375
	minimum = 0.007 (at node 0)
	maximum = 0.016 (at node 6)
Accepted flit rate average= 0.01025
	minimum = 0.005 (at node 1)
	maximum = 0.017 (at node 13)
Injected packet length average = 1
Accepted packet length average = 1
Total in-flight flits = 3 (0 measured)
latency change    = 1
throughput change = 1
Class 0:
Packet latency average = 19.5106
	minimum = 7
	maximum = 38
Network latency average = 19.5106
	minimum = 7
	maximum = 38
Slowest packet = 4863
Flit latency average = 19.5106
	minimum = 7
	maximum = 38
Slowest flit = 4863
Fragmentation average = 0
	minimum = 0
	maximum = 0
Injected packet rate average = 0.0104375
	minimum = 0.0065 (at node 13)
	maximum = 0.017 (at node 6)
Accepted packet rate average = 0.0103438
	minimum = 0.0055 (at node 8)
	maximum = 0.0145 (at node 13)
Injected flit rate average = 0.0104375
	minimum = 0.0065 (at node 13)
	maximum = 0.017 (at node 6)
Accepted flit rate average= 0.0103438
	minimum = 0.0055 (at node 8)
	maximum = 0.0145 (at node 13)
Injected packet length average = 1
Accepted packet length average = 1
Total in-flight flits = 3 (0 measured)
latency change    = 0.0110215
throughput change = 0.00906344
Class 0:
Packet latency average = 20.0207
	minimum = 7
	maximum = 37
Network latency average = 20.0207
	minimum = 7
	maximum = 37
Slowest packet = 5009
Flit latency average = 20.0207
	minimum = 7
	maximum = 37
Slowest flit = 5009
Fragmentation average = 0
	minimum = 0
	maximum = 0
Injected packet rate average = 0.0090625
	minimum = 0.002 (at node 4)
	maximum = 0.013 (at node 0)
Accepted packet rate average = 0.0090625
	minimum = 0.005 (at node 2)
	maximum = 0.014 (at node 13)
Injected flit rate average = 0.0090625
	minimum = 0.002 (at node 4)
	maximum = 0.013 (at node 0)
Accepted flit rate average= 0.0090625
	minimum = 0.005 (at node 2)
	maximum = 0.014 (at node 13)
Injected packet length average = 1
Accepted packet length average = 1
Total in-flight flits = 3 (0 measured)
latency change    = 0.0254794
throughput change = 0.141379
Warmed up ...Time used is 3000 cycles
Class 0:
Packet latency average = 18.5525
	minimum = 7
	maximum = 37
Network latency average = 18.5525
	minimum = 7
	maximum = 37
Slowest packet = 5181
Flit latency average = 18.5543
	minimum = 7
	maximum = 37
Slowest flit = 5181
Fragmentation average = 0
	minimum = 0
	maximum = 0
Injected packet rate average = 0.011375
	minimum = 0.005 (at node 3)
	maximum = 0.017 (at node 11)
Accepted packet rate average = 0.0115
	minimum = 0.003 (at node 5)
	maximum = 0.017 (at node 3)
Injected flit rate average = 0.011375
	minimum = 0.005 (at node 3)
	maximum = 0.017 (at node 11)
Accepted flit rate average= 0.0115
	minimum = 0.003 (at node 5)
	maximum = 0.017 (at node 3)
Injected packet length average = 1
Accepted packet length average = 1
Total in-flight flits = 1 (1 measured)
latency change    = 0.0791378
throughput change = 0.211957
Class 0:
Packet latency average = 19.1879
	minimum = 7
	maximum = 37
Network latency average = 19.1879
	minimum = 7
	maximum = 37
Slowest packet = 5181
Flit latency average = 19.1834
	minimum = 7
	maximum = 37
Slowest flit = 5181
Fragmentation average = 0
	minimum = 0
	maximum = 0
Injected packet rate average = 0.0109375
	minimum = 0.0065 (at node 8)
	maximum = 0.0155 (at node 14)
Accepted packet rate average = 0.0109062
	minimum = 0.0075 (at node 5)
	maximum = 0.015 (at node 9)
Injected flit rate average = 0.0109375
	minimum = 0.0065 (at node 8)
	maximum = 0.0155 (at node 14)
Accepted flit rate average= 0.0109062
	minimum = 0.0075 (at node 5)
	maximum = 0.015 (at node 9)
Injected packet length average = 1
Accepted packet length average = 1
Total in-flight flits = 4 (4 measured)
latency change    = 0.0331134
throughput change = 0.0544413
Class 0:
Packet latency average = 19.3053
	minimum = 7
	maximum = 37
Network latency average = 19.3053
	minimum = 7
	maximum = 37
Slowest packet = 5181
Flit latency average = 19.3017
	minimum = 7
	maximum = 37
Slowest flit = 5181
Fragmentation average = 0
	minimum = 0
	maximum = 0
Injected packet rate average = 0.0109583
	minimum = 0.008 (at node 5)
	maximum = 0.015 (at node 11)
Accepted packet rate average = 0.0109792
	minimum = 0.007 (at node 5)
	maximum = 0.0133333 (at node 6)
Injected flit rate average = 0.0109583
	minimum = 0.008 (at node 5)
	maximum = 0.015 (at node 11)
Accepted flit rate average= 0.0109792
	minimum = 0.007 (at node 5)
	maximum = 0.0133333 (at node 6)
Injected packet length average = 1
Accepted packet length average = 1
Total in-flight flits = 2 (2 measured)
latency change    = 0.00608548
throughput change = 0.00664137
Class 0:
Packet latency average = 19.299
	minimum = 7
	maximum = 37
Network latency average = 19.299
	minimum = 7
	maximum = 37
Slowest packet = 5181
Flit latency average = 19.2962
	minimum = 7
	maximum = 37
Slowest flit = 5181
Fragmentation average = 0
	minimum = 0
	maximum = 0
Injected packet rate average = 0.0108281
	minimum = 0.009 (at node 3)
	maximum = 0.0145 (at node 13)
Accepted packet rate average = 0.0108125
	minimum = 0.0075 (at node 5)
	maximum = 0.01325 (at node 6)
Injected flit rate average = 0.0108281
	minimum = 0.009 (at node 3)
	maximum = 0.0145 (at node 13)
Accepted flit rate average= 0.0108125
	minimum = 0.0075 (at node 5)
	maximum = 0.01325 (at node 6)
Injected packet length average = 1
Accepted packet length average = 1
Total in-flight flits = 4 (4 measured)
latency change    = 0.000329524
throughput change = 0.0154143
Class 0:
Packet latency average = 19.496
	minimum = 7
	maximum = 37
Network latency average = 19.496
	minimum = 7
	maximum = 37
Slowest packet = 5181
Flit latency average = 19.4931
	minimum = 7
	maximum = 37
Slowest flit = 5181
Fragmentation average = 0
	minimum = 0
	maximum = 0
Injected packet rate average = 0.01085
	minimum = 0.0084 (at node 3)
	maximum = 0.0142 (at node 13)
Accepted packet rate average = 0.01085
	minimum = 0.0082 (at node 5)
	maximum = 0.0132 (at node 4)
Injected flit rate average = 0.01085
	minimum = 0.0084 (at node 3)
	maximum = 0.0142 (at node 13)
Accepted flit rate average= 0.01085
	minimum = 0.0082 (at node 5)
	maximum = 0.0132 (at node 4)
Injected packet length average = 1
Accepted packet length average = 1
Total in-flight flits = 3 (3 measured)
latency change    = 0.0101031
throughput change = 0.00345622
Draining all recorded packets ...
Draining remaining packets ...
Time taken is 8047 cycles
Class 0:
Packet latency average = 18.8616
	minimum = 7
	maximum = 37
Network latency average = 18.8616
	minimum = 7
	maximum = 37
Slowest packet = 6034
Flit latency average = 18.8616
	minimum = 7
	maximum = 37
Slowest flit = 6034
Fragmentation average = 0
	minimum = 0
	maximum = 0
Injected packet rate average = 0.010125
	minimum = 0.004 (at node 14)
	maximum = 0.016 (at node 11)
Accepted packet rate average = 0.0099375
	minimum = 0.006 (at node 10)
	maximum = 0.018 (at node 14)
Injected flit rate average = 0.010125
	minimum = 0.004 (at node 14)
	maximum = 0.016 (at node 11)
Accepted flit rate average= 0.0099375
	minimum = 0.006 (at node 10)
	maximum = 0.018 (at node 14)
Injected packet length average = 1
Accepted packet length average = 1
Total in-flight flits = 3 (0 measured)
latency change    = 1
throughput change = 1
Class 0:
Packet latency average = 18.8766
	minimum = 7
	maximum = 37
Network latency average = 18.8766
	minimum = 7
	maximum = 37
Slowest packet = 6034
Flit latency average = 18.8766
	minimum = 7
	maximum = 37
Slowest flit = 6034
Fragmentation average = 0
	minimum = 0
	maximum = 0
Injected packet rate average = 0.00971875
	minimum = 0.008 (at node 2)
	maximum = 0.014 (at node 11)
Accepted packet rate average = 0.009625
	minimum = 0.0055 (at node 6)
	maximum = 0.014 (at node 8)
Injected flit rate average = 0.00971875
	minimum = 0.008 (at node 2)
	maximum = 0.014 (at node 11)
Accepted flit rate average= 0.009625
	minimum = 0.0055 (at node 6)
	maximum = 0.014 (at node 8)
Injected packet length average = 1
Accepted packet length average = 1
Total in-flight flits = 3 (0 measured)
latency change    = 0.000794006
throughput change = 0.0324675
Class 0:
Packet latency average = 19.7312
	minimum = 7
	maximum = 37
Network latency average = 19.7312
	minimum = 7
	maximum = 37
Slowest packet = 6456
Flit latency average = 19.7312
	minimum = 7
	maximum = 37
Slowest flit = 6456
Fragmentation average = 0
	minimum = 0
	maximum = 0
Injected packet rate average = 0.0099375
	minimum = 0.005 (at node 5)
	maximum = 0.016 (at node 12)
Accepted packet rate average = 0.01
	minimum = 0.003 (at node 3)
	maximum = 0.015 (at node 5)
Injected flit rate average = 0.0099375
	minimum = 0.005 (at node 5)
	maximum = 0.016 (at node 12)
Accepted flit rate average= 0.01
	minimum = 0.003 (at node 3)
	maximum = 0.015 (at node 5)
Injected packet length average = 1
Accepted packet length average = 1
Total in-flight flits = 2 (0 measured)
latency change    = 0.0433134
throughput change = 0.0375
Warmed up ...Time used is 3000 cycles
Class 0:
Packet latency average = 19.2727
	minimum = 7
	maximum = 37
Network latency average = 19.2727
	minimum = 7
	maximum = 37
Slowest packet = 6581
Flit latency average = 19.3353
	minimum = 7
	maximum = 37
Slowest flit = 6581
Fragmentation average = 0
	minimum = 0
	maximum = 0
Injected packet rate average = 0.0105625
	minimum = 0.003 (at node 1)
	maximum = 0.019 (at node 0)
Accepted packet rate average = 0.0104375
	minimum = 0.006 (at node 13)
	maximum = 0.016 (at node 6)
Injected flit rate average = 0.0105625
	minimum = 0.003 (at node 1)
	maximum = 0.019 (at node 0)
Accepted flit rate average= 0.0104375
	minimum = 0.006 (at node 13)
	maximum = 0.016 (at node 6)
Injected packet length average = 1
Accepted packet length average = 1
Total in-flight flits = 4 (4 measured)
latency change    = 0.0237913
throughput change = 0.0419162
Class 0:
Packet latency average = 20.0054
	minimum = 7
	maximum = 37
Network latency average = 20.0054
	minimum = 7
	maximum = 37
Slowest packet = 6581
Flit latency average = 20.0298
	minimum = 7
	maximum = 37
Slowest flit = 6581
Fragmentation average = 0
	minimum = 0
	maximum = 0
Injected packet rate average = 0.0115312
	minimum = 0.007 (at node 12)
	maximum = 0.018 (at node 0)
Accepted packet rate average = 0.0115312
	minimum = 0.008 (at node 13)
	maximum = 0.015 (at node 11)
Injected flit rate average = 0.0115312
	minimum = 0.007 (at node 12)
	maximum = 0.018 (at node 0)
Accepted flit rate average= 0.0115312
	minimum = 0.008 (at node 13)
	maximum = 0.015 (at node 11)
Injected packet length average = 1
Accepted packet length average = 1
Total in-flight flits = 2 (2 measured)
latency change    = 0.0366261
throughput change = 0.0948509
Class 0:
Packet latency average = 19.9679
	minimum = 7
	maximum = 37
Network latency average = 19.9679
	minimum = 7
	maximum = 37
Slowest packet = 6581
Flit latency average = 19.985
	minimum = 7
	maximum = 37
Slowest flit = 6581
Fragmentation average = 0
	minimum = 0
	maximum = 0
Injected packet rate average = 0.0110833
	minimum = 0.006 (at node 12)
	maximum = 0.0146667 (at node 0)
Accepted packet rate average = 0.0110833
	minimum = 0.00866667 (at node 4)
	maximum = 0.013 (at node 0)
Injected flit rate average = 0.0110833
	minimum = 0.006 (at node 12)
	maximum = 0.0146667 (at node 0)
Accepted flit rate average= 0.0110833
	minimum = 0.00866667 (at node 4)
	maximum = 0.013 (at node 0)
Injected packet length average = 1
Accepted packet length average = 1
Total in-flight flits = 2 (2 measured)
latency change    = 0.00187927
throughput change = 0.0404135
Class 0:
Packet latency average = 19.9567
	minimum = 7
	maximum = 37
Network latency average = 19.9567
	minimum = 7
	maximum = 37
Slowest packet = 6581
Flit latency average = 19.9698
	minimum = 7
	maximum = 37
Slowest flit = 6581
Fragmentation average = 0
	minimum = 0
	maximum = 0
Injected packet rate average = 0.0108594
	minimum = 0.00675 (at node 12)
	maximum = 0.014 (at node 0)
Accepted packet rate average = 0.0108594
	minimum = 0.00825 (at node 4)
	maximum = 0.0135 (at node 0)
Injected flit rate average = 0.0108594
	minimum = 0.00675 (at node 12)
	maximum = 0.014 (at node 0)
Accepted flit rate average= 0.0108594
	minimum = 0.00825 (at node 4)
	maximum = 0.0135 (at node 0)
Injected packet length average = 1
Accepted packet length average = 1
Total in-flight flits = 2 (2 measured)
latency change    = 0.000561945
throughput change = 0.0206235
Class 0:
Packet latency average = 20.0083
	minimum = 7
	maximum = 37
Network latency average = 20.0083
	minimum = 7
	maximum = 37
Slowest packet = 6581
Flit latency average = 20.0189
	minimum = 7
	maximum = 37
Slowest flit = 6581
Fragmentation average = 0
	minimum = 0
	maximum = 0
Injected packet rate average = 0.010575
	minimum = 0.0072 (at node 12)
	maximum = 0.0132 (at node 7)
Accepted packet rate average = 0.0105625
	minimum = 0.0084 (at node 9)
	maximum = 0.0136 (at node 0)
Injected flit rate average = 0.010575
	minimum = 0.0072 (at node 12)
	maximum = 0.0132 (at node 7)
Accepted flit rate average= 0.0105625
	minimum = 0.0084 (at node 9)
	maximum = 0.0136 (at node 0)
Injected packet length average = 1
Accepted packet length average = 1
Total in-flight flits = 3 (3 measured)
latency change    = 0.00257862
throughput change = 0.0281065
Draining all recorded packets ...
Draining remaining packets ...
Time taken is 8045 cycles
Class 0:
Packet latency average = 19.2258
	minimum = 7
	maximum = 32
Network latency average = 19.2258
	minimum = 7
	maximum = 32
Slowest packet = 7353
Flit latency average = 19.2258
	minimum = 7
	maximum = 32
Slowest flit = 7353
Fragmentation average = 0
	minimum = 0
	maximum = 0
Injected packet rate average = 0.0099375
	minimum = 0.007 (at node 0)
	maximum = 0.014 (at node 10)
Accepted packet rate average = 0.0096875
	minimum = 0.004 (at node 6)
	maximum = 0.018 (at node 1)
Injected flit rate average = 0.0099375
	minimum = 0.007 (at node 0)
	maximum = 0.014 (at node 10)
Accepted flit rate average= 0.0096875
	minimum = 0.004 (at node 6)
	maximum = 0.018 (at node 1)
Injected packet length average = 1
Accepted packet length average = 1
Total in-flight flits = 4 (0 measured)
latency change    = 1
throughput change = 1
Class 0:
Packet latency average = 19.3269
	minimum = 7
	maximum = 32
Network latency average = 19.3269
	minimum = 7
	maximum = 32
Slowest packet = 7353
Flit latency average = 19.3269
	minimum = 7
	maximum = 32
Slowest flit = 7353
Fragmentation average = 0
	minimum = 0
	maximum = 0
Injected packet rate average = 0.00978125
	minimum = 0.0075 (at node 0)
	maximum = 0.0135 (at node 11)
Accepted packet rate average = 0.00975
	minimum = 0.005 (at node 11)
	maximum = 0.015 (at node 1)
Injected flit rate average = 0.00978125
	minimum = 0.0075 (at node 0)
	maximum = 0.0135 (at node 11)
Accepted flit rate average= 0.00975
	minimum = 0.005 (at node 11)
	maximum = 0.015 (at node 1)
Injected packet length average = 1
Accepted packet length average = 1
Total in-flight flits = 1 (0 measured)
latency change    = 0.0052319
throughput change = 0.00641026
Class 0:
Packet latency average = 19.2701
	minimum = 7
	maximum = 32
Network latency average = 19.2701
	minimum = 7
	maximum = 32
Slowest packet = 7672
Flit latency average = 19.2701
	minimum = 7
	maximum = 32
Slowest flit = 7672
Fragmentation average = 0
	minimum = 0
	maximum = 0
Injected packet rate average = 0.0086875
	minimum = 0.004 (at node 1)
	maximum = 0.014 (at node 8)
Accepted packet rate average = 0.0085625
	minimum = 0.004 (at node 2)
	maximum = 0.019 (at node 12)
Injected flit rate average = 0.0086875
	minimum = 0.004 (at node 1)
	maximum = 0.014 (at node 8)
Accepted flit rate average= 0.0085625
	minimum = 0.004 (at node 2)
	maximum = 0.019 (at node 12)
Injected packet length average = 1
Accepted packet length average = 1
Total in-flight flits = 3 (0 measured)
latency change    = 0.00295017
throughput change = 0.138686
Warmed up ...Time used is 3000 cycles
Class 0:
Packet latency average = 19.4521
	minimum = 7
	maximum = 37
Network latency average = 19.4521
	minimum = 7
	maximum = 37
Slowest packet = 7937
Flit latency average = 19.5034
	minimum = 7
	maximum = 37
Slowest flit = 7937
Fragmentation average = 0
	minimum = 0
	maximum = 0
Injected packet rate average = 0.0091875
	minimum = 0.004 (at node 0)
	maximum = 0.015 (at node 6)
Accepted packet rate average = 0.0093125
	minimum = 0.006 (at node 8)
	maximum = 0.015 (at node 15)
Injected flit rate average = 0.0091875
	minimum = 0.004 (at node 0)
	maximum = 0.015 (at node 6)
Accepted flit rate average= 0.0093125
	minimum = 0.006 (at node 8)
	maximum = 0.015 (at node 15)
Injected packet length average = 1
Accepted packet length average = 1
Total in-flight flits = 1 (1 measured)
latency change    = 0.0093554
throughput change = 0.0805369
Class 0:
Packet latency average = 19.6389
	minimum = 7
	maximum = 37
Network latency average = 19.6389
	minimum = 7
	maximum = 37
Slowest packet = 7937
Flit latency average = 19.6632
	minimum = 7
	maximum = 37
Slowest flit = 7937
Fragmentation average = 0
	minimum = 0
	maximum = 0
Injected packet rate average = 0.009125
	minimum = 0.004 (at node 8)
	maximum = 0.0135 (at node 6)
Accepted packet rate average = 0.00909375
	minimum = 0.005 (at node 1)
	maximum = 0.012 (at node 6)
Injected flit rate average = 0.009125
	minimum = 0.004 (at node 8)
	maximum = 0.0135 (at node 6)
Accepted flit rate average= 0.00909375
	minimum = 0.005 (at node 1)
	maximum = 0.012 (at node 6)
Injected packet length average = 1
Accepted packet length average = 1
Total in-flight flits = 4 (4 measured)
latency change    = 0.00951348
throughput change = 0.024055
Class 0:
Packet latency average = 19.5202
	minimum = 7
	maximum = 37
Network latency average = 19.5202
	minimum = 7
	maximum = 37
Slowest packet = 7937
Flit latency average = 19.5359
	minimum = 7
	maximum = 37
Slowest flit = 7937
Fragmentation average = 0
	minimum = 0
	maximum = 0
Injected packet rate average = 0.0098125
	minimum = 0.00633333 (at node 9)
	maximum = 0.0123333 (at node 13)
Accepted packet rate average = 0.009875
	minimum = 0.00566667 (at node 1)
	maximum = 0.013 (at node 4)
Injected flit rate average = 0.0098125
	minimum = 0.00633333 (at node 9)
	maximum = 0.0123333 (at node 13)
Accepted flit rate average= 0.009875
	minimum = 0.00566667 (at node 1)
	maximum = 0.013 (at node 4)
Injected packet length average = 1
Accepted packet length average = 1
Total in-flight flits = 0 (0 measured)
latency change    = 0.00608186
throughput change = 0.0791139
Class 0:
Packet latency average = 19.3767
	minimum = 7
	maximum = 37
Network latency average = 19.3767
	minimum = 7
	maximum = 37
Slowest packet = 7937
Flit latency average = 19.3889
	minimum = 7
	maximum = 37
Slowest flit = 7937
Fragmentation average = 0
	minimum = 0
	maximum = 0
Injected packet rate average = 0.0100938
	minimum = 0.00625 (at node 9)
	maximum = 0.014 (at node 3)
Accepted packet rate average = 0.010125
	minimum = 0.007 (at node 8)
	maximum = 0.01375 (at node 7)
Injected flit rate average = 0.0100938
	minimum = 0.00625 (at node 9)
	maximum = 0.014 (at node 3)
Accepted flit rate average= 0.010125
	minimum = 0.007 (at node 8)
	maximum = 0.01375 (at node 7)
Injected packet length average = 1
Accepted packet length average = 1
Total in-flight flits = 1 (1 measured)
latency change    = 0.00740195
throughput change = 0.0246914
Class 0:
Packet latency average = 19.4517
	minimum = 7
	maximum = 37
Network latency average = 19.4517
	minimum = 7
	maximum = 37
Slowest packet = 7937
Flit latency average = 19.4616
	minimum = 7
	maximum = 37
Slowest flit = 7937
Fragmentation average = 0
	minimum = 0
	maximum = 0
Injected packet rate average = 0.0096375
	minimum = 0.0062 (at node 9)
	maximum = 0.0134 (at node 3)
Accepted packet rate average = 0.0096125
	minimum = 0.006 (at node 8)
	maximum = 0.0122 (at node 6)
Injected flit rate average = 0.0096375
	minimum = 0.0062 (at node 9)
	maximum = 0.0134 (at node 3)
Accepted flit rate average= 0.0096125
	minimum = 0.006 (at node 8)
	maximum = 0.0122 (at node 6)
Injected packet length average = 1
Accepted packet length average = 1
Total in-flight flits = 5 (5 measured)
latency change    = 0.00385329
throughput change = 0.053316
Class 0:
Packet latency average = 19.4209
	minimum = 7
	maximum = 37
Network latency average = 19.4209
	minimum = 7
	maximum = 37
Slowest packet = 7937
Flit latency average = 19.4292
	minimum = 7
	maximum = 37
Slowest flit = 7937
Fragmentation average = 0
	minimum = 0
	maximum = 0
Injected packet rate average = 0.00976042
	minimum = 0.007 (at node 8)
	maximum = 0.0133333 (at node 3)
Accepted packet rate average = 0.00978125
	minimum = 0.00716667 (at node 8)
	maximum = 0.012 (at node 6)
Injected flit rate average = 0.00976042
	minimum = 0.007 (at node 8)
	maximum = 0.0133333 (at node 3)
Accepted flit rate average= 0.00978125
	minimum = 0.00716667 (at node 8)
	maximum = 0.012 (at node 6)
Injected packet length average = 1
Accepted packet length average = 1
Total in-flight flits = 1 (1 measured)
latency change    = 0.0015837
throughput change = 0.0172524
Class 0:
Packet latency average = 19.4362
	minimum = 7
	maximum = 37
Network latency average = 19.4362
	minimum = 7
	maximum = 37
Slowest packet = 7937
Flit latency average = 19.4433
	minimum = 7
	maximum = 37
Slowest flit = 7937
Fragmentation average = 0
	minimum = 0
	maximum = 0
Injected packet rate average = 0.0096875
	minimum = 0.00671429 (at node 8)
	maximum = 0.0128571 (at node 3)
Accepted packet rate average = 0.0096875
	minimum = 0.00657143 (at node 8)
	maximum = 0.0112857 (at node 15)
Injected flit rate average = 0.0096875
	minimum = 0.00671429 (at node 8)
	maximum = 0.0128571 (at node 3)
Accepted flit rate average= 0.0096875
	minimum = 0.00657143 (at node 8)
	maximum = 0.0112857 (at node 15)
Injected packet length average = 1
Accepted packet length average = 1
Total in-flight flits = 3 (3 measured)
latency change    = 0.000786626
throughput change = 0.00967742
Draining all recorded packets ...
Draining remaining packets ...
Time taken is 10056 cycles
Class 0:
Packet latency average = 19.3566
	minimum = 7
	maximum = 37
Network latency average = 19.3566
	minimum = 7
	maximum = 37
Slowest packet = 8908
Flit latency average = 19.3566
	minimum = 7
	maximum = 37
Slowest flit = 8908
Fragmentation average = 0
	minimum = 0
	maximum = 0
Injected packet rate average = 0.009
	minimum = 0.004 (at node 15)
	maximum = 0.015 (at node 11)
Accepted packet rate average = 0.0089375
	minimum = 0.002 (at node 9)
	maximum = 0.019 (at node 10)
Injected flit rate average = 0.009
	minimum = 0.004 (at node 15)
	maximum = 0.015 (at node 11)
Accepted flit rate average= 0.0089375
	minimum = 0.002 (at node 9)
	maximum = 0.019 (at node 10)
Injected packet length average = 1
Accepted packet length average = 1
Total in-flight flits = 1 (0 measured)
latency change    = 1
throughput change = 1
Class 0:
Packet latency average = 19.4814
	minimum = 7
	maximum = 37
Network latency average = 19.4814
	minimum = 7
	maximum = 37
Slowest packet = 8908
Flit latency average = 19.4814
	minimum = 7
	maximum = 37
Slowest flit = 8908
Fragmentation average = 0
	minimum = 0
	maximum = 0
Injected packet rate average = 0.00925
	minimum = 0.0055 (at node 15)
	maximum = 0.015 (at node 11)
Accepted packet rate average = 0.00921875
	minimum = 0.004 (at node 6)
	maximum = 0.013 (at node 10)
Injected flit rate average = 0.00925
	minimum = 0.0055 (at node 15)
	maximum = 0.015 (at node 11)
Accepted flit rate average= 0.00921875
	minimum = 0.004 (at node 6)
	maximum = 0.013 (at node 10)
Injected packet length average = 1
Accepted packet length average = 1
Total in-flight flits = 1 (0 measured)
latency change    = 0.00640164
throughput change = 0.0305085
Class 0:
Packet latency average = 19.8393
	minimum = 7
	maximum = 37
Network latency average = 19.8393
	minimum = 7
	maximum = 37
Slowest packet = 9218
Flit latency average = 19.8393
	minimum = 7
	maximum = 37
Slowest flit = 9218
Fragmentation average = 0
	minimum = 0
	maximum = 0
Injected packet rate average = 0.0105625
	minimum = 0.006 (at node 3)
	maximum = 0.017 (at node 9)
Accepted packet rate average = 0.0105
	minimum = 0.006 (at node 8)
	maximum = 0.017 (at node 5)
Injected flit rate average = 0.0105625
	minimum = 0.006 (at node 3)
	maximum = 0.017 (at node 9)
Accepted flit rate average= 0.0105
	minimum = 0.006 (at node 8)
	maximum = 0.017 (at node 5)
Injected packet length average = 1
Accepted packet length average = 1
Total in-flight flits = 2 (0 measured)
latency change    = 0.0180415
throughput change = 0.122024
Warmed up ...Time used is 3000 cycles
Class 0:
Packet latency average = 18.7161
	minimum = 7
	maximum = 37
Network latency average = 18.7161
	minimum = 7
	maximum = 37
Slowest packet = 9359
Flit latency average = 18.758
	minimum = 7
	maximum = 37
Slowest flit = 9359
Fragmentation average = 0
	minimum = 0
	maximum = 0
Injected packet rate average = 0.0096875
	minimum = 0.005 (at node 12)
	maximum = 0.015 (at node 9)
Accepted packet rate average = 0.0098125
	minimum = 0.005 (at node 4)
	maximum = 0.015 (at node 15)
Injected flit rate average = 0.0096875
	minimum = 0.005 (at node 12)
	maximum = 0.015 (at node 9)
Accepted flit rate average= 0.0098125
	minimum = 0.005 (at node 4)
	maximum = 0.015 (at node 15)
Injected packet length average = 1
Accepted packet length average = 1
Total in-flight flits = 0 (0 measured)
latency change    = 0.0600101
throughput change = 0.0700637
Class 0:
Packet latency average = 18.4295
	minimum = 7
	maximum = 37
Network latency average = 18.4295
	minimum = 7
	maximum = 37
Slowest packet = 9359
Flit latency average = 18.4533
	minimum = 7
	maximum = 37
Slowest flit = 9359
Fragmentation average = 0
	minimum = 0
	maximum = 0
Injected packet rate average = 0.00940625
	minimum = 0.0065 (at node 12)
	maximum = 0.012 (at node 9)
Accepted packet rate average = 0.009375
	minimum = 0.0055 (at node 4)
	maximum = 0.0135 (at node 7)
Injected flit rate average = 0.00940625
	minimum = 0.0065 (at node 12)
	maximum = 0.012 (at node 9)
Accepted flit rate average= 0.009375
	minimum = 0.0055 (at node 4)
	maximum = 0.0135 (at node 7)
Injected packet length average = 1
Accepted packet length average = 1
Total in-flight flits = 3 (3 measured)
latency change    = 0.0155511
throughput change = 0.0466667
Class 0:
Packet latency average = 18.9435
	minimum = 7
	maximum = 38
Network latency average = 18.9435
	minimum = 7
	maximum = 38
Slowest packet = 9705
Flit latency average = 18.9567
	minimum = 7
	maximum = 38
Slowest flit = 9705
Fragmentation average = 0
	minimum = 0
	maximum = 0
Injected packet rate average = 0.00960417
	minimum = 0.00766667 (at node 15)
	maximum = 0.0113333 (at node 0)
Accepted packet rate average = 0.009625
	minimum = 0.00633333 (at node 10)
	maximum = 0.013 (at node 15)
Injected flit rate average = 0.00960417
	minimum = 0.00766667 (at node 15)
	maximum = 0.0113333 (at node 0)
Accepted flit rate average= 0.009625
	minimum = 0.00633333 (at node 10)
	maximum = 0.013 (at node 15)
Injected packet length average = 1
Accepted packet length average = 1
Total in-flight flits = 1 (1 measured)
latency change    = 0.0271306
throughput change = 0.025974
Class 0:
Packet latency average = 19.0556
	minimum = 7
	maximum = 38
Network latency average = 19.0556
	minimum = 7
	maximum = 38
Slowest packet = 9705
Flit latency average = 19.0649
	minimum = 7
	maximum = 38
Slowest flit = 9705
Fragmentation average = 0
	minimum = 0
	maximum = 0
Injected packet rate average = 0.009875
	minimum = 0.0075 (at node 12)
	maximum = 0.0115 (at node 0)
Accepted packet rate average = 0.009875
	minimum = 0.008 (at node 12)
	maximum = 0.01225 (at node 3)
Injected flit rate average = 0.009875
	minimum = 0.0075 (at node 12)
	maximum = 0.0115 (at node 0)
Accepted flit rate average= 0.009875
	minimum = 0.008 (at node 12)
	maximum = 0.01225 (at node 3)
Injected packet length average = 1
Accepted packet length average = 1
Total in-flight flits = 2 (2 measured)
latency change    = 0.00588161
throughput change = 0.0253165
Draining all recorded packets ...
Draining remaining packets ...
Time taken is 7006 cycles
Class 0:
Packet latency average = 19.1515
	minimum = 7
	maximum = 37
Network latency average = 19.1515
	minimum = 7
	maximum = 37
Slowest packet = 10057
Flit latency average = 19.1515
	minimum = 7
	maximum = 37
Slowest flit = 10057
Fragmentation average = 0
	minimum = 0
	maximum = 0
Injected packet rate average = 0.010625
	minimum = 0.006 (at node 13)
	maximum = 0.014 (at node 5)
Accepted packet rate average = 0.0103125
	minimum = 0.004 (at node 3)
	maximum = 0.017 (at node 13)
Injected flit rate average = 0.010625
	minimum = 0.006 (at node 13)
	maximum = 0.014 (at node 5)
Accepted flit rate average= 0.0103125
	minimum = 0.004 (at node 3)
	maximum = 0.017 (at node 13)
Injected packet length average = 1
Accepted packet length average = 1
Total in-flight flits = 5 (0 measured)
latency change    = 1
throughput change = 1
Class 0:
Packet latency average = 19.1727
	minimum = 7
	maximum = 37
Network latency average = 19.1727
	minimum = 7
	maximum = 37
Slowest packet = 10057
Flit latency average = 19.1727
	minimum = 7
	maximum = 37
Slowest flit = 10057
Fragmentation average = 0
	minimum = 0
	maximum = 0
Injected packet rate average = 0.0103125
	minimum = 0.008 (at node 2)
	maximum = 0.0125 (at node 5)
Accepted packet rate average = 0.0103125
	minimum = 0.0075 (at node 12)
	maximum = 0.013 (at node 1)
Injected flit rate average = 0.0103125
	minimum = 0.008 (at node 2)
	maximum = 0.0125 (at node 5)
Accepted flit rate average= 0.0103125
	minimum = 0.0075 (at node 12)
	maximum = 0.013 (at node 1)
Injected packet length average = 1
Accepted packet length average = 1
Total in-flight flits = 0 (0 measured)
latency change    = 0.00110637
throughput change = 0
Class 0:
Packet latency average = 19.9247
	minimum = 7
	maximum = 37
Network latency average = 19.9247
	minimum = 7
	maximum = 37
Slowest packet = 10347
Flit latency average = 19.9247
	minimum = 7
	maximum = 37
Slowest flit = 10347
Fragmentation average = 0
	minimum = 0
	maximum = 0
Injected packet rate average = 0.0091875
	minimum = 0.003 (at node 13)
	maximum = 0.015 (at node 2)
Accepted packet rate average = 0.009125
	minimum = 0.003 (at node 3)
	maximum = 0.015 (at node 15)
Injected flit rate average = 0.0091875
	minimum = 0.003 (at node 13)
	maximum = 0.015 (at node 2)
Accepted flit rate average= 0.009125
	minimum = 0.003 (at node 3)
	maximum = 0.015 (at node 15)
Injected packet length average = 1
Accepted packet length average = 1
Total in-flight flits = 1 (0 measured)
latency change    = 0.0377387
throughput change = 0.130137
Warmed up ...Time used is 3000 cycles
Class 0:
Packet latency average = 19.0732
	minimum = 7
	maximum = 37
Network latency average = 19.0732
	minimum = 7
	maximum = 37
Slowest packet = 10615
Flit latency average = 19.1515
	minimum = 7
	maximum = 37
Slowest flit = 10615
Fragmentation average = 0
	minimum = 0
	maximum = 0
Injected packet rate average = 0.0104375
	minimum = 0.004 (at node 3)
	maximum = 0.016 (at node 0)
Accepted packet rate average = 0.0103125
	minimum = 0.005 (at node 1)
	maximum = 0.015 (at node 7)
Injected flit rate average = 0.0104375
	minimum = 0.004 (at node 3)
	maximum = 0.016 (at node 0)
Accepted flit rate average= 0.0103125
	minimum = 0.005 (at node 1)
	maximum = 0.015 (at node 7)
Injected packet length average = 1
Accepted packet length average = 1
Total in-flight flits = 3 (3 measured)
latency change    = 0.0446432
throughput change = 0.115152
Class 0:
Packet latency average = 19.6044
	minimum = 7
	maximum = 37
Network latency average = 19.6044
	minimum = 7
	maximum = 37
Slowest packet = 10615
Flit latency average = 19.6429
	minimum = 7
	maximum = 37
Slowest flit = 10615
Fragmentation average = 0
	minimum = 0
	maximum = 0
Injected packet rate average = 0.0102188
	minimum = 0.007 (at node 8)
	maximum = 0.0135 (at node 1)
Accepted packet rate average = 0.0100625
	minimum = 0.007 (at node 10)
	maximum = 0.0135 (at node 12)
Injected flit rate average = 0.0102188
	minimum = 0.007 (at node 8)
	maximum = 0.0135 (at node 1)
Accepted flit rate average= 0.0100625
	minimum = 0.007 (at node 10)
	maximum = 0.0135 (at node 12)
Injected packet length average = 1
Accepted packet length average = 1
Total in-flight flits = 6 (6 measured)
latency change    = 0.0270955
throughput change = 0.0248447
Class 0:
Packet latency average = 19.7505
	minimum = 7
	maximum = 37
Network latency average = 19.7505
	minimum = 7
	maximum = 37
Slowest packet = 10615
Flit latency average = 19.7762
	minimum = 7
	maximum = 37
Slowest flit = 10615
Fragmentation average = 0
	minimum = 0
	maximum = 0
Injected packet rate average = 0.01
	minimum = 0.008 (at node 10)
	maximum = 0.013 (at node 7)
Accepted packet rate average = 0.00995833
	minimum = 0.00633333 (at node 15)
	maximum = 0.0146667 (at node 9)
Injected flit rate average = 0.01
	minimum = 0.008 (at node 10)
	maximum = 0.013 (at node 7)
Accepted flit rate average= 0.00995833
	minimum = 0.00633333 (at node 15)
	maximum = 0.0146667 (at node 9)
Injected packet length average = 1
Accepted packet length average = 1
Total in-flight flits = 3 (3 measured)
latency change    = 0.00740045
throughput change = 0.0104603
Class 0:
Packet latency average = 19.6395
	minimum = 7
	maximum = 37
Network latency average = 19.6395
	minimum = 7
	maximum = 37
Slowest packet = 10615
Flit latency average = 19.6588
	minimum = 7
	maximum = 37
Slowest flit = 10615
Fragmentation average = 0
	minimum = 0
	maximum = 0
Injected packet rate average = 0.00998438
	minimum = 0.00775 (at node 10)
	maximum = 0.01225 (at node 7)
Accepted packet rate average = 0.00998438
	minimum = 0.007 (at node 15)
	maximum = 0.013 (at node 7)
Injected flit rate average = 0.00998438
	minimum = 0.00775 (at node 10)
	maximum = 0.01225 (at node 7)
Accepted flit rate average= 0.00998438
	minimum = 0.007 (at node 15)
	maximum = 0.013 (at node 7)
Injected packet length average = 1
Accepted packet length average = 1
Total in-flight flits = 1 (1 measured)
latency change    = 0.00565318
throughput change = 0.00260824
Draining all recorded packets ...
Draining remaining packets ...
Time taken is 7037 cycles
Class 0:
Packet latency average = 20.6319
	minimum = 7
	maximum = 37
Network latency average = 20.6319
	minimum = 7
	maximum = 37
Slowest packet = 11199
Flit latency average = 20.6319
	minimum = 7
	maximum = 37
Slowest flit = 11199
Fragmentation average = 0
	minimum = 0
	maximum = 0
Injected packet rate average = 0.00925
	minimum = 0.004 (at node 8)
	maximum = 0.013 (at node 3)
Accepted packet rate average = 0.009
	minimum = 0.005 (at node 0)
	maximum = 0.012 (at node 11)
Injected flit rate average = 0.00925
	minimum = 0.004 (at node 8)
	maximum = 0.013 (at node 3)
Accepted flit rate average= 0.009
	minimum = 0.005 (at node 0)
	maximum = 0.012 (at node 11)
Injected packet length average = 1
Accepted packet length average = 1
Total in-flight flits = 4 (0 measured)
latency change    = 1
throughput change = 1
Class 0:
Packet latency average = 20.1424
	minimum = 7
	maximum = 37
Network latency average = 20.1424
	minimum = 7
	maximum = 37
Slowest packet = 11199
Flit latency average = 20.1424
	minimum = 7
	maximum = 37
Slowest flit = 11199
Fragmentation average = 0
	minimum = 0
	maximum = 0
Injected packet rate average = 0.0098125
	minimum = 0.0075 (at node 5)
	maximum = 0.0115 (at node 6)
Accepted packet rate average = 0.00965625
	minimum = 0.006 (at node 0)
	maximum = 0.0145 (at node 11)
Injected flit rate average = 0.0098125
	minimum = 0.0075 (at node 5)
	maximum = 0.0115 (at node 6)
Accepted flit rate average= 0.00965625
	minimum = 0.006 (at node 0)
	maximum = 0.0145 (at node 11)
Injected packet length average = 1
Accepted packet length average = 1
Total in-flight flits = 5 (0 measured)
latency change    = 0.0243044
throughput change = 0.0679612
Class 0:
Packet latency average = 19.3882
	minimum = 7
	maximum = 37
Network latency average = 19.3882
	minimum = 7
	maximum = 37
Slowest packet = 11417
Flit latency average = 19.3882
	minimum = 7
	maximum = 37
Slowest flit = 11417
Fragmentation average = 0
	minimum = 0
	maximum = 0
Injected packet rate average = 0.0104375
	minimum = 0.006 (at node 13)
	maximum = 0.019 (at node 4)
Accepted packet rate average = 0.010625
	minimum = 0.004 (at node 11)
	maximum = 0.021 (at node 10)
Injected flit rate average = 0.0104375
	minimum = 0.006 (at node 13)
	maximum = 0.019 (at node 4)
Accepted flit rate average= 0.010625
	minimum = 0.004 (at node 11)
	maximum = 0.021 (at node 10)
Injected packet length average = 1
Accepted packet length average = 1
Total in-flight flits = 2 (0 measured)
latency change    = 0.0388978
throughput change = 0.0911765
Warmed up ...Time used is 3000 cycles
Class 0:
Packet latency average = 19.3926
	minimum = 7
	maximum = 32
Network latency average = 19.3926
	minimum = 7
	maximum = 32
Slowest packet = 11606
Flit latency average = 19.3333
	minimum = 7
	maximum = 32
Slowest flit = 11606
Fragmentation average = 0
	minimum = 0
	maximum = 0
Injected packet rate average = 0.0103125
	minimum = 0.005 (at node 10)
	maximum = 0.015 (at node 2)
Accepted packet rate average = 0.0103125
	minimum = 0.007 (at node 1)
	maximum = 0.016 (at node 13)
Injected flit rate average = 0.0103125
	minimum = 0.005 (at node 10)
	maximum = 0.015 (at node 2)
Accepted flit rate average= 0.0103125
	minimum = 0.007 (at node 1)
	maximum = 0.016 (at node 13)
Injected packet length average = 1
Accepted packet length average = 1
Total in-flight flits = 2 (2 measured)
latency change    = 0.000227032
throughput change = 0.030303
Class 0:
Packet latency average = 19.1505
	minimum = 7
	maximum = 37
Network latency average = 19.1505
	minimum = 7
	maximum = 37
Slowest packet = 11791
Flit latency average = 19.1215
	minimum = 7
	maximum = 37
Slowest flit = 11791
Fragmentation average = 0
	minimum = 0
	maximum = 0
Injected packet rate average = 0.0101563
	minimum = 0.0055 (at node 10)
	maximum = 0.013 (at node 1)
Accepted packet rate average = 0.0100313
	minimum = 0.0065 (at node 6)
	maximum = 0.0165 (at node 13)
Injected flit rate average = 0.0101563
	minimum = 0.0055 (at node 10)
	maximum = 0.013 (at node 1)
Accepted flit rate average= 0.0100313
	minimum = 0.0065 (at node 6)
	maximum = 0.0165 (at node 13)
Injected packet length average = 1
Accepted packet length average = 1
Total in-flight flits = 6 (6 measured)
latency change    = 0.0126455
throughput change = 0.0280374
Class 0:
Packet latency average = 19.2588
	minimum = 7
	maximum = 37
Network latency average = 19.2588
	minimum = 7
	maximum = 37
Slowest packet = 11791
Flit latency average = 19.2392
	minimum = 7
	maximum = 37
Slowest flit = 11791
Fragmentation average = 0
	minimum = 0
	maximum = 0
Injected packet rate average = 0.0101042
	minimum = 0.008 (at node 0)
	maximum = 0.013 (at node 7)
Accepted packet rate average = 0.0101042
	minimum = 0.00733333 (at node 2)
	maximum = 0.0146667 (at node 13)
Injected flit rate average = 0.0101042
	minimum = 0.008 (at node 0)
	maximum = 0.013 (at node 7)
Accepted flit rate average= 0.0101042
	minimum = 0.00733333 (at node 2)
	maximum = 0.0146667 (at node 13)
Injected packet length average = 1
Accepted packet length average = 1
Total in-flight flits = 2 (2 measured)
latency change    = 0.00562491
throughput change = 0.00721649
Draining all recorded packets ...
Draining remaining packets ...
Time taken is 6050 cycles
Class 0:
Packet latency average = 19.277
	minimum = 7
	maximum = 37
Network latency average = 19.277
	minimum = 7
	maximum = 37
Slowest packet = 12130
Flit latency average = 19.277
	minimum = 7
	maximum = 37
Slowest flit = 12130
Fragmentation average = 0
	minimum = 0
	maximum = 0
Injected packet rate average = 0.00925
	minimum = 0.005 (at node 3)
	maximum = 0.015 (at node 1)
Accepted packet rate average = 0.00925
	minimum = 0.003 (at node 10)
	maximum = 0.019 (at node 1)
Injected flit rate average = 0.00925
	minimum = 0.005 (at node 3)
	maximum = 0.015 (at node 1)
Accepted flit rate average= 0.00925
	minimum = 0.003 (at node 10)
	maximum = 0.019 (at node 1)
Injected packet length average = 1
Accepted packet length average = 1
Total in-flight flits = 0 (0 measured)
latency change    = 1
throughput change = 1
Class 0:
Packet latency average = 19.3865
	minimum = 7
	maximum = 37
Network latency average = 19.3865
	minimum = 7
	maximum = 37
Slowest packet = 12130
Flit latency average = 19.3865
	minimum = 7
	maximum = 37
Slowest flit = 12130
Fragmentation average = 0
	minimum = 0
	maximum = 0
Injected packet rate average = 0.0089375
	minimum = 0.005 (at node 13)
	maximum = 0.012 (at node 1)
Accepted packet rate average = 0.0088125
	minimum = 0.0045 (at node 10)
	maximum = 0.0135 (at node 1)
Injected flit rate average = 0.0089375
	minimum = 0.005 (at node 13)
	maximum = 0.012 (at node 1)
Accepted flit rate average= 0.0088125
	minimum = 0.0045 (at node 10)
	maximum = 0.0135 (at node 1)
Injected packet length average = 1
Accepted packet length average = 1
Total in-flight flits = 4 (0 measured)
latency change    = 0.00564814
throughput change = 0.0496454
Class 0:
Packet latency average = 18.7692
	minimum = 7
	maximum = 37
Network latency average = 18.7692
	minimum = 7
	maximum = 37
Slowest packet = 12397
Flit latency average = 18.7692
	minimum = 7
	maximum = 37
Slowest flit = 12397
Fragmentation average = 0
	minimum = 0
	maximum = 0
Injected packet rate average = 0.0114375
	minimum = 0.008 (at node 3)
	maximum = 0.017 (at node 5)
Accepted packet rate average = 0.011375
	minimum = 0.007 (at node 15)
	maximum = 0.016 (at node 6)
Injected flit rate average = 0.0114375
	minimum = 0.008 (at node 3)
	maximum = 0.017 (at node 5)
Accepted flit rate average= 0.011375
	minimum = 0.007 (at node 15)
	maximum = 0.016 (at node 6)
Injected packet length average = 1
Accepted packet length average = 1
Total in-flight flits = 5 (0 measured)
latency change    = 0.0328886
throughput change = 0.225275
Warmed up ...Time used is 3000 cycles
Class 0:
Packet latency average = 19.3268
	minimum = 7
	maximum = 37
Network latency average = 19.3268
	minimum = 7
	maximum = 37
Slowest packet = 12602
Flit latency average = 19.3481
	minimum = 7
	maximum = 37
Slowest flit = 12602
Fragmentation average = 0
	minimum = 0
	maximum = 0
Injected packet rate average = 0.00975
	minimum = 0.005 (at node 2)
	maximum = 0.014 (at node 7)
Accepted packet rate average = 0.009875
	minimum = 0.005 (at node 4)
	maximum = 0.015 (at node 5)
Injected flit rate average = 0.00975
	minimum = 0.005 (at node 2)
	maximum = 0.014 (at node 7)
Accepted flit rate average= 0.009875
	minimum = 0.005 (at node 4)
	maximum = 0.015 (at node 5)
Injected packet length average = 1
Accepted packet length average = 1
Total in-flight flits = 3 (3 measured)
latency change    = 0.0288494
throughput change = 0.151899
Class 0:
Packet latency average = 19.2461
	minimum = 7
	maximum = 37
Network latency average = 19.2461
	minimum = 7
	maximum = 37
Slowest packet = 12602
Flit latency average = 19.2577
	minimum = 7
	maximum = 37
Slowest flit = 12602
Fragmentation average = 0
	minimum = 0
	maximum = 0
Injected packet rate average = 0.0101875
	minimum = 0.0075 (at node 3)
	maximum = 0.0135 (at node 12)
Accepted packet rate average = 0.0101875
	minimum = 0.0075 (at node 3)
	maximum = 0.014 (at node 5)
Injected flit rate average = 0.0101875
	minimum = 0.0075 (at node 3)
	maximum = 0.0135 (at node 12)
Accepted flit rate average= 0.0101875
	minimum = 0.0075 (at node 3)
	maximum = 0.014 (at node 5)
Injected packet length average = 1
Accepted packet length average = 1
Total in-flight flits = 5 (5 measured)
latency change    = 0.00419261
throughput change = 0.0306748
Class 0:
Packet latency average = 19.2712
	minimum = 7
	maximum = 37
Network latency average = 19.2712
	minimum = 7
	maximum = 37
Slowest packet = 12602
Flit latency average = 19.2788
	minimum = 7
	maximum = 37
Slowest flit = 12602
Fragmentation average = 0
	minimum = 0
	maximum = 0
Injected packet rate average = 0.009875
	minimum = 0.006 (at node 2)
	maximum = 0.0136667 (at node 8)
Accepted packet rate average = 0.0099375
	minimum = 0.00766667 (at node 3)
	maximum = 0.0136667 (at node 5)
Injected flit rate average = 0.009875
	minimum = 0.006 (at node 2)
	maximum = 0.0136667 (at node 8)
Accepted flit rate average= 0.0099375
	minimum = 0.00766667 (at node 3)
	maximum = 0.0136667 (at node 5)
Injected packet length average = 1
Accepted packet length average = 1
Total in-flight flits = 2 (2 measured)
latency change    = 0.00130145
throughput change = 0.0251572
Class 0:
Packet latency average = 19.3344
	minimum = 7
	maximum = 37
Network latency average = 19.3344
	minimum = 7
	maximum = 37
Slowest packet = 12602
Flit latency average = 19.3396
	minimum = 7
	maximum = 37
Slowest flit = 12602
Fragmentation average = 0
	minimum = 0
	maximum = 0
Injected packet rate average = 0.0100313
	minimum = 0.007 (at node 2)
	maximum = 0.014 (at node 8)
Accepted packet rate average = 0.0100313
	minimum = 0.00725 (at node 3)
	maximum = 0.01325 (at node 5)
Injected flit rate average = 0.0100313
	minimum = 0.007 (at node 2)
	maximum = 0.014 (at node 8)
Accepted flit rate average= 0.0100313
	minimum = 0.00725 (at node 3)
	maximum = 0.01325 (at node 5)
Injected packet length average = 1
Accepted packet length average = 1
Total in-flight flits = 5 (5 measured)
latency change    = 0.00326845
throughput change = 0.00934579
Draining all recorded packets ...
Draining remaining packets ...
Time taken is 7036 cycles
Class 0:
Packet latency average = 19.4405
	minimum = 7
	maximum = 37
Network latency average = 19.4405
	minimum = 7
	maximum = 37
Slowest packet = 13202
Flit latency average = 19.4405
	minimum = 7
	maximum = 37
Slowest flit = 13202
Fragmentation average = 0
	minimum = 0
	maximum = 0
Injected packet rate average = 0.0106875
	minimum = 0.006 (at node 6)
	maximum = 0.015 (at node 4)
Accepted packet rate average = 0.0105
	minimum = 0.003 (at node 7)
	maximum = 0.015 (at node 4)
Injected flit rate average = 0.0106875
	minimum = 0.006 (at node 6)
	maximum = 0.015 (at node 4)
Accepted flit rate average= 0.0105
	minimum = 0.003 (at node 7)
	maximum = 0.015 (at node 4)
Injected packet length average = 1
Accepted packet length average = 1
Total in-flight flits = 3 (0 measured)
latency change    = 1
throughput change = 1
Class 0:
Packet latency average = 19.2702
	minimum = 7
	maximum = 37
Network latency average = 19.2702
	minimum = 7
	maximum = 37
Slowest packet = 13202
Flit latency average = 19.2702
	minimum = 7
	maximum = 37
Slowest flit = 13202
Fragmentation average = 0
	minimum = 0
	maximum = 0
Injected packet rate average = 0.01025
	minimum = 0.007 (at node 6)
	maximum = 0.0135 (at node 7)
Accepted packet rate average = 0.0100625
	minimum = 0.005 (at node 7)
	maximum = 0.0145 (at node 9)
Injected flit rate average = 0.01025
	minimum = 0.007 (at node 6)
	maximum = 0.0135 (at node 7)
Accepted flit rate average= 0.0100625
	minimum = 0.005 (at node 7)
	maximum = 0.0145 (at node 9)
Injected packet length average = 1
Accepted packet length average = 1
Total in-flight flits = 6 (0 measured)
latency change    = 0.00883696
throughput change = 0.0434783
Class 0:
Packet latency average = 20.1046
	minimum = 7
	maximum = 37
Network latency average = 20.1046
	minimum = 7
	maximum = 37
Slowest packet = 13528
Flit latency average = 20.1046
	minimum = 7
	maximum = 37
Slowest flit = 13528
Fragmentation average = 0
	minimum = 0
	maximum = 0
Injected packet rate average = 0.009375
	minimum = 0.007 (at node 0)
	maximum = 0.014 (at node 8)
Accepted packet rate average = 0.0095625
	minimum = 0.004 (at node 1)
	maximum = 0.017 (at node 2)
Injected flit rate average = 0.009375
	minimum = 0.007 (at node 0)
	maximum = 0.014 (at node 8)
Accepted flit rate average= 0.0095625
	minimum = 0.004 (at node 1)
	maximum = 0.017 (at node 2)
Injected packet length average = 1
Accepted packet length average = 1
Total in-flight flits = 3 (0 measured)
latency change    = 0.0415024
throughput change = 0.0522876
Warmed up ...Time used is 3000 cycles
Class 0:
Packet latency average = 18.8161
	minimum = 7
	maximum = 37
Network latency average = 18.8161
	minimum = 7
	maximum = 37
Slowest packet = 13672
Flit latency average = 18.8418
	minimum = 7
	maximum = 37
Slowest flit = 13672
Fragmentation average = 0
	minimum = 0
	maximum = 0
Injected packet rate average = 0.0110625
	minimum = 0.004 (at node 11)
	maximum = 0.016 (at node 2)
Accepted packet rate average = 0.0110625
	minimum = 0.007 (at node 5)
	maximum = 0.015 (at node 2)
Injected flit rate average = 0.0110625
	minimum = 0.004 (at node 11)
	maximum = 0.016 (at node 2)
Accepted flit rate average= 0.0110625
	minimum = 0.007 (at node 5)
	maximum = 0.015 (at node 2)
Injected packet length average = 1
Accepted packet length average = 1
Total in-flight flits = 3 (3 measured)
latency change    = 0.0684777
throughput change = 0.135593
Class 0:
Packet latency average = 18.6748
	minimum = 7
	maximum = 37
Network latency average = 18.6748
	minimum = 7
	maximum = 37
Slowest packet = 13672
Flit latency average = 18.69
	minimum = 7
	maximum = 37
Slowest flit = 13672
Fragmentation average = 0
	minimum = 0
	maximum = 0
Injected packet rate average = 0.01025
	minimum = 0.0045 (at node 11)
	maximum = 0.0145 (at node 3)
Accepted packet rate average = 0.0102813
	minimum = 0.007 (at node 5)
	maximum = 0.014 (at node 2)
Injected flit rate average = 0.01025
	minimum = 0.0045 (at node 11)
	maximum = 0.0145 (at node 3)
Accepted flit rate average= 0.0102813
	minimum = 0.007 (at node 5)
	maximum = 0.014 (at node 2)
Injected packet length average = 1
Accepted packet length average = 1
Total in-flight flits = 2 (2 measured)
latency change    = 0.0075634
throughput change = 0.0759878
Class 0:
Packet latency average = 18.9826
	minimum = 7
	maximum = 37
Network latency average = 18.9826
	minimum = 7
	maximum = 37
Slowest packet = 13672
Flit latency average = 18.9904
	minimum = 7
	maximum = 37
Slowest flit = 13672
Fragmentation average = 0
	minimum = 0
	maximum = 0
Injected packet rate average = 0.0108333
	minimum = 0.00733333 (at node 7)
	maximum = 0.016 (at node 3)
Accepted packet rate average = 0.0108125
	minimum = 0.006 (at node 5)
	maximum = 0.0136667 (at node 9)
Injected flit rate average = 0.0108333
	minimum = 0.00733333 (at node 7)
	maximum = 0.016 (at node 3)
Accepted flit rate average= 0.0108125
	minimum = 0.006 (at node 5)
	maximum = 0.0136667 (at node 9)
Injected packet length average = 1
Accepted packet length average = 1
Total in-flight flits = 4 (4 measured)
latency change    = 0.0162102
throughput change = 0.0491329
Class 0:
Packet latency average = 19.2771
	minimum = 7
	maximum = 37
Network latency average = 19.2771
	minimum = 7
	maximum = 37
Slowest packet = 13672
Flit latency average = 19.2818
	minimum = 7
	maximum = 37
Slowest flit = 13672
Fragmentation average = 0
	minimum = 0
	maximum = 0
Injected packet rate average = 0.0107188
	minimum = 0.008 (at node 5)
	maximum = 0.015 (at node 3)
Accepted packet rate average = 0.0107031
	minimum = 0.00775 (at node 5)
	maximum = 0.0145 (at node 12)
Injected flit rate average = 0.0107188
	minimum = 0.008 (at node 5)
	maximum = 0.015 (at node 3)
Accepted flit rate average= 0.0107031
	minimum = 0.00775 (at node 5)
	maximum = 0.0145 (at node 12)
Injected packet length average = 1
Accepted packet length average = 1
Total in-flight flits = 4 (4 measured)
latency change    = 0.0152807
throughput change = 0.010219
Class 0:
Packet latency average = 19.4115
	minimum = 7
	maximum = 37
Network latency average = 19.4115
	minimum = 7
	maximum = 37
Slowest packet = 13672
Flit latency average = 19.4149
	minimum = 7
	maximum = 37
Slowest flit = 13672
Fragmentation average = 0
	minimum = 0
	maximum = 0
Injected packet rate average = 0.0102125
	minimum = 0.008 (at node 5)
	maximum = 0.0136 (at node 3)
Accepted packet rate average = 0.0102125
	minimum = 0.0078 (at node 13)
	maximum = 0.0132 (at node 7)
Injected flit rate average = 0.0102125
	minimum = 0.008 (at node 5)
	maximum = 0.0136 (at node 3)
Accepted flit rate average= 0.0102125
	minimum = 0.0078 (at node 13)
	maximum = 0.0132 (at node 7)
Injected packet length average = 1
Accepted packet length average = 1
Total in-flight flits = 3 (3 measured)
latency change    = 0.00692484
throughput change = 0.0480416
Draining all recorded packets ...
Draining remaining packets ...
Time taken is 8040 cycles
Class 0:
Packet latency average = 18.5605
	minimum = 7
	maximum = 37
Network latency average = 18.5605
	minimum = 7
	maximum = 37
Slowest packet = 14490
Flit latency average = 18.5605
	minimum = 7
	maximum = 37
Slowest flit = 14490
Fragmentation average = 0
	minimum = 0
	maximum = 0
Injected packet rate average = 0.0101875
	minimum = 0.007 (at node 3)
	maximum = 0.016 (at node 4)
Accepted packet rate average = 0.0098125
	minimum = 0.003 (at node 3)
	maximum = 0.014 (at node 1)
Injected flit rate average = 0.0101875
	minimum = 0.007 (at node 3)
	maximum = 0.016 (at node 4)
Accepted flit rate average= 0.0098125
	minimum = 0.003 (at node 3)
	maximum = 0.014 (at node 1)
Injected packet length average = 1
Accepted packet length average = 1
Total in-flight flits = 6 (0 measured)
latency change    = 1
throughput change = 1
Class 0:
Packet latency average = 18.8829
	minimum = 7
	maximum = 38
Network latency average = 18.8829
	minimum = 7
	maximum = 38
Slowest packet = 14735
Flit latency average = 18.8829
	minimum = 7
	maximum = 38
Slowest flit = 14735
Fragmentation average = 0
	minimum = 0
	maximum = 0
Injected packet rate average = 0.0105625
	minimum = 0.0055 (at node 13)
	maximum = 0.016 (at node 14)
Accepted packet rate average = 0.0104063
	minimum = 0.0065 (at node 7)
	maximum = 0.015 (at node 10)
Injected flit rate average = 0.0105625
	minimum = 0.0055 (at node 13)
	maximum = 0.016 (at node 14)
Accepted flit rate average= 0.0104063
	minimum = 0.0065 (at node 7)
	maximum = 0.015 (at node 10)
Injected packet length average = 1
Accepted packet length average = 1
Total in-flight flits = 5 (0 measured)
latency change    = 0.0170723
[...]
	maximum = 0.0125 (at node 15)
Accepted packet rate average = 0.00935937
	minimum = 0.00575 (at node 1)
	maximum = 0.0125 (at node 3)
Injected flit rate average = 0.00939062
	minimum = 0.00575 (at node 4)
	maximum = 0.0125 (at node 15)
Accepted flit rate average= 0.00935937
	minimum = 0.00575 (at node 1)
	maximum = 0.0125 (at node 3)
Injected packet length average = 1
Accepted packet length average = 1
Total in-flight flits = 4 (4 measured)
latency change    = 0.0124564
throughput change = 0.0116861
Class 0:
Packet latency average = 19.4868
	minimum = 7
	maximum = 37
Network latency average = 19.4868
	minimum = 7
	maximum = 37
Slowest packet = 117672
Flit latency average = 19.4934
	minimum = 7
	maximum = 37
Slowest flit = 117672
Fragmentation average = 0
	minimum = 0
	maximum = 0
Injected packet rate average = 0.009525
	minimum = 0.0062 (at node 4)
	maximum = 0.012 (at node 8)
Accepted packet rate average = 0.0095
	minimum = 0.0062 (at node 14)
	maximum = 0.0122 (at node 3)
Injected flit rate average = 0.009525
	minimum = 0.0062 (at node 4)
	maximum = 0.012 (at node 8)
Accepted flit rate average= 0.0095
	minimum = 0.0062 (at node 14)
	maximum = 0.0122 (at node 3)
Injected packet length average = 1
Accepted packet length average = 1
Total in-flight flits = 4 (4 measured)
latency change    = 0.00211662
throughput change = 0.0148026
Draining all recorded packets ...
Draining remaining packets ...
Time taken is 8028 cycles
Class 0:
Packet latency average = 19.2653
	minimum = 7
	maximum = 37
Network latency average = 19.2653
	minimum = 7
	maximum = 37
Slowest packet = 118460
Flit latency average = 19.2653
	minimum = 7
	maximum = 37
Slowest flit = 118460
Fragmentation average = 0
	minimum = 0
	maximum = 0
Injected packet rate average = 0.0093125
	minimum = 0.003 (at node 14)
	maximum = 0.014 (at node 3)
Accepted packet rate average = 0.0091875
	minimum = 0.005 (at node 3)
	maximum = 0.014 (at node 0)
Injected flit rate average = 0.0093125
	minimum = 0.003 (at node 14)
	maximum = 0.014 (at node 3)
Accepted flit rate average= 0.0091875
	minimum = 0.005 (at node 3)
	maximum = 0.014 (at node 0)
Injected packet length average = 1
Accepted packet length average = 1
Total in-flight flits = 2 (0 measured)
latency change    = 1
throughput change = 1
Class 0:
Packet latency average = 19.5394
	minimum = 7
	maximum = 37
Network latency average = 19.5394
	minimum = 7
	maximum = 37
Slowest packet = 118460
Flit latency average = 19.5394
	minimum = 7
	maximum = 37
Slowest flit = 118460
Fragmentation average = 0
	minimum = 0
	maximum = 0
Injected packet rate average = 0.0100313
	minimum = 0.0055 (at node 14)
	maximum = 0.0155 (at node 3)
Accepted packet rate average = 0.00990625
	minimum = 0.006 (at node 4)
	maximum = 0.013 (at node 9)
Injected flit rate average = 0.0100313
	minimum = 0.0055 (at node 14)
	maximum = 0.0155 (at node 3)
Accepted flit rate average= 0.00990625
	minimum = 0.006 (at node 4)
	maximum = 0.013 (at node 9)
Injected packet length average = 1
Accepted packet length average = 1
Total in-flight flits = 4 (0 measured)
latency change    = 0.0140294
throughput change = 0.0725552
Class 0:
Packet latency average = 19.6467
	minimum = 7
	maximum = 37
Network latency average = 19.6467
	minimum = 7
	maximum = 37
Slowest packet = 118826
Flit latency average = 19.6467
	minimum = 7
	maximum = 37
Slowest flit = 118826
Fragmentation average = 0
	minimum = 0
	maximum = 0
Injected packet rate average = 0.0105
	minimum = 0.007 (at node 5)
	maximum = 0.016 (at node 7)
Accepted packet rate average = 0.0104375
	minimum = 0.003 (at node 8)
	maximum = 0.016 (at node 14)
Injected flit rate average = 0.0105
	minimum = 0.007 (at node 5)
	maximum = 0.016 (at node 7)
Accepted flit rate average= 0.0104375
	minimum = 0.003 (at node 8)
	maximum = 0.016 (at node 14)
Injected packet length average = 1
Accepted packet length average = 1
Total in-flight flits = 5 (0 measured)
latency change    = 0.00546017
throughput change = 0.0508982
Warmed up ...Time used is 3000 cycles
Class 0:
Packet latency average = 19.3056
	minimum = 7
	maximum = 37
Network latency average = 19.3056
	minimum = 7
	maximum = 37
Slowest packet = 118967
Flit latency average = 19.396
	minimum = 7
	maximum = 37
Slowest flit = 118967
Fragmentation average = 0
	minimum = 0
	maximum = 0
Injected packet rate average = 0.00925
	minimum = 0.005 (at node 3)
	maximum = 0.015 (at node 4)
Accepted packet rate average = 0.0093125
	minimum = 0.004 (at node 2)
	maximum = 0.017 (at node 10)
Injected flit rate average = 0.00925
	minimum = 0.005 (at node 3)
	maximum = 0.015 (at node 4)
Accepted flit rate average= 0.0093125
	minimum = 0.004 (at node 2)
	maximum = 0.017 (at node 10)
Injected packet length average = 1
Accepted packet length average = 1
Total in-flight flits = 4 (4 measured)
latency change    = 0.0176711
throughput change = 0.120805
Class 0:
Packet latency average = 19.7838
	minimum = 7
	maximum = 37
Network latency average = 19.7838
	minimum = 7
	maximum = 37
Slowest packet = 118967
Flit latency average = 19.8206
	minimum = 7
	maximum = 37
Slowest flit = 118967
Fragmentation average = 0
	minimum = 0
	maximum = 0
Injected packet rate average = 0.0093125
	minimum = 0.0065 (at node 6)
	maximum = 0.0135 (at node 13)
Accepted packet rate average = 0.00940625
	minimum = 0.004 (at node 2)
	maximum = 0.0115 (at node 0)
Injected flit rate average = 0.0093125
	minimum = 0.0065 (at node 6)
	maximum = 0.0135 (at node 13)
Accepted flit rate average= 0.00940625
	minimum = 0.004 (at node 2)
	maximum = 0.0115 (at node 0)
Injected packet length average = 1
Accepted packet length average = 1
Total in-flight flits = 2 (2 measured)
latency change    = 0.0241727
throughput change = 0.00996678
Class 0:
Packet latency average = 19.4803
	minimum = 7
	maximum = 37
Network latency average = 19.4803
	minimum = 7
	maximum = 37
Slowest packet = 118967
Flit latency average = 19.5092
	minimum = 7
	maximum = 37
Slowest flit = 118967
Fragmentation average = 0
	minimum = 0
	maximum = 0
Injected packet rate average = 0.0090625
	minimum = 0.00733333 (at node 0)
	maximum = 0.0123333 (at node 13)
Accepted packet rate average = 0.00908333
	minimum = 0.00533333 (at node 4)
	maximum = 0.012 (at node 3)
Injected flit rate average = 0.0090625
	minimum = 0.00733333 (at node 0)
	maximum = 0.0123333 (at node 13)
Accepted flit rate average= 0.00908333
	minimum = 0.00533333 (at node 4)
	maximum = 0.012 (at node 3)
Injected packet length average = 1
Accepted packet length average = 1
Total in-flight flits = 4 (4 measured)
latency change    = 0.0155801
throughput change = 0.0355505
Class 0:
Packet latency average = 19.4643
	minimum = 7
	maximum = 37
Network latency average = 19.4643
	minimum = 7
	maximum = 37
Slowest packet = 118967
Flit latency average = 19.4857
	minimum = 7
	maximum = 37
Slowest flit = 118967
Fragmentation average = 0
	minimum = 0
	maximum = 0
Injected packet rate average = 0.0091875
	minimum = 0.0075 (at node 5)
	maximum = 0.01225 (at node 13)
Accepted packet rate average = 0.00926562
	minimum = 0.0055 (at node 7)
	maximum = 0.01125 (at node 3)
Injected flit rate average = 0.0091875
	minimum = 0.0075 (at node 5)
	maximum = 0.01225 (at node 13)
Accepted flit rate average= 0.00926562
	minimum = 0.0055 (at node 7)
	maximum = 0.01125 (at node 3)
Injected packet length average = 1
Accepted packet length average = 1
Total in-flight flits = 0 (0 measured)
latency change    = 0.000821644
throughput change = 0.019674
Draining all recorded packets ...
Draining remaining packets ...
Time taken is 7001 cycles
Class 0:
Packet latency average = 19.8272
	minimum = 7
	maximum = 37
Network latency average = 19.8272
	minimum = 7
	maximum = 37
Slowest packet = 119510
Flit latency average = 19.8272
	minimum = 7
	maximum = 37
Slowest flit = 119510
Fragmentation average = 0
	minimum = 0
	maximum = 0
Injected packet rate average = 0.010125
	minimum = 0.004 (at node 5)
	maximum = 0.018 (at node 7)
Accepted packet rate average = 0.010125
	minimum = 0.004 (at node 4)
	maximum = 0.02 (at node 13)
Injected flit rate average = 0.010125
	minimum = 0.004 (at node 5)
	maximum = 0.018 (at node 7)
Accepted flit rate average= 0.010125
	minimum = 0.004 (at node 4)
	maximum = 0.02 (at node 13)
Injected packet length average = 1
Accepted packet length average = 1
Total in-flight flits = 0 (0 measured)
latency change    = 1
throughput change = 1
Class 0:
Packet latency average = 19.5075
	minimum = 7
	maximum = 38
Network latency average = 19.5075
	minimum = 7
	maximum = 38
Slowest packet = 119759
Flit latency average = 19.5075
	minimum = 7
	maximum = 38
Slowest flit = 119759
Fragmentation average = 0
	minimum = 0
	maximum = 0
Injected packet rate average = 0.0107812
	minimum = 0.0075 (at node 0)
	maximum = 0.016 (at node 7)
Accepted packet rate average = 0.0104688
	minimum = 0.006 (at node 8)
	maximum = 0.014 (at node 13)
Injected flit rate average = 0.0107812
	minimum = 0.0075 (at node 0)
	maximum = 0.016 (at node 7)
Accepted flit rate average= 0.0104688
	minimum = 0.006 (at node 8)
	maximum = 0.014 (at node 13)
Injected packet length average = 1
Accepted packet length average = 1
Total in-flight flits = 10 (0 measured)
latency change    = 0.0163885
throughput change = 0.0328358
Class 0:
Packet latency average = 20.225
	minimum = 7
	maximum = 37
Network latency average = 20.225
	minimum = 7
	maximum = 37
Slowest packet = 119903
Flit latency average = 20.225
	minimum = 7
	maximum = 37
Slowest flit = 119903
Fragmentation average = 0
	minimum = 0
	maximum = 0
Injected packet rate average = 0.0094375
	minimum = 0.007 (at node 12)
	maximum = 0.013 (at node 13)
Accepted packet rate average = 0.01
	minimum = 0.006 (at node 4)
	maximum = 0.018 (at node 8)
Injected flit rate average = 0.0094375
	minimum = 0.007 (at node 12)
	maximum = 0.013 (at node 13)
Accepted flit rate average= 0.01
	minimum = 0.006 (at node 4)
	maximum = 0.018 (at node 8)
Injected packet length average = 1
Accepted packet length average = 1
Total in-flight flits = 1 (0 measured)
latency change    = 0.0354777
throughput change = 0.046875
Warmed up ...Time used is 3000 cycles
Class 0:
Packet latency average = 19.6552
	minimum = 7
	maximum = 37
Network latency average = 19.6552
	minimum = 7
	maximum = 37
Slowest packet = 120098
Flit latency average = 19.6971
	minimum = 7
	maximum = 37
Slowest flit = 120098
Fragmentation average = 0
	minimum = 0
	maximum = 0
Injected packet rate average = 0.011
	minimum = 0.005 (at node 1)
	maximum = 0.022 (at node 8)
Accepted packet rate average = 0.0109375
	minimum = 0.006 (at node 0)
	maximum = 0.018 (at node 8)
Injected flit rate average = 0.011
	minimum = 0.005 (at node 1)
	maximum = 0.022 (at node 8)
Accepted flit rate average= 0.0109375
	minimum = 0.006 (at node 0)
	maximum = 0.018 (at node 8)
Injected packet length average = 1
Accepted packet length average = 1
Total in-flight flits = 2 (2 measured)
latency change    = 0.0289912
throughput change = 0.0857143
Class 0:
Packet latency average = 19.0901
	minimum = 7
	maximum = 37
Network latency average = 19.0901
	minimum = 7
	maximum = 37
Slowest packet = 120098
Flit latency average = 19.113
	minimum = 7
	maximum = 37
Slowest flit = 120098
Fragmentation average = 0
	minimum = 0
	maximum = 0
Injected packet rate average = 0.0109062
	minimum = 0.007 (at node 12)
	maximum = 0.015 (at node 8)
Accepted packet rate average = 0.0107812
	minimum = 0.0075 (at node 1)
	maximum = 0.014 (at node 10)
Injected flit rate average = 0.0109062
	minimum = 0.007 (at node 12)
	maximum = 0.015 (at node 8)
Accepted flit rate average= 0.0107812
	minimum = 0.0075 (at node 1)
	maximum = 0.014 (at node 10)
Injected packet length average = 1
Accepted packet length average = 1
Total in-flight flits = 5 (5 measured)
latency change    = 0.0295994
throughput change = 0.0144928
Class 0:
Packet latency average = 19.0869
	minimum = 7
	maximum = 38
Network latency average = 19.0869
	minimum = 7
	maximum = 38
Slowest packet = 120458
Flit latency average = 19.1021
	minimum = 7
	maximum = 38
Slowest flit = 120458
Fragmentation average = 0
	minimum = 0
	maximum = 0
Injected packet rate average = 0.010875
	minimum = 0.00733333 (at node 1)
	maximum = 0.0146667 (at node 8)
Accepted packet rate average = 0.0108125
	minimum = 0.00766667 (at node 1)
	maximum = 0.0136667 (at node 5)
Injected flit rate average = 0.010875
	minimum = 0.00733333 (at node 1)
	maximum = 0.0146667 (at node 8)
Accepted flit rate average= 0.0108125
	minimum = 0.00766667 (at node 1)
	maximum = 0.0136667 (at node 5)
Injected packet length average = 1
Accepted packet length average = 1
Total in-flight flits = 4 (4 measured)
latency change    = 0.000169944
throughput change = 0.00289017
Class 0:
Packet latency average = 19.1241
	minimum = 7
	maximum = 38
Network latency average = 19.1241
	minimum = 7
	maximum = 38
Slowest packet = 120458
Flit latency average = 19.1357
	minimum = 7
	maximum = 38
Slowest flit = 120458
Fragmentation average = 0
	minimum = 0
	maximum = 0
Injected packet rate average = 0.0106094
	minimum = 0.008 (at node 12)
	maximum = 0.01325 (at node 8)
Accepted packet rate average = 0.0105938
	minimum = 0.0075 (at node 1)
	maximum = 0.01325 (at node 10)
Injected flit rate average = 0.0106094
	minimum = 0.008 (at node 12)
	maximum = 0.01325 (at node 8)
Accepted flit rate average= 0.0105938
	minimum = 0.0075 (at node 1)
	maximum = 0.01325 (at node 10)
Injected packet length average = 1
Accepted packet length average = 1
Total in-flight flits = 2 (2 measured)
latency change    = 0.00194541
throughput change = 0.020649
Draining all recorded packets ...
Draining remaining packets ...
Time taken is 7042 cycles
Class 0:
Packet latency average = 20.0736
	minimum = 7
	maximum = 37
Network latency average = 20.0736
	minimum = 7
	maximum = 37
Slowest packet = 120688
Flit latency average = 20.0736
	minimum = 7
	maximum = 37
Slowest flit = 120688
Fragmentation average = 0
	minimum = 0
	maximum = 0
Injected packet rate average = 0.0103125
	minimum = 0.004 (at node 13)
	maximum = 0.016 (at node 1)
Accepted packet rate average = 0.0101875
	minimum = 0.007 (at node 1)
	maximum = 0.015 (at node 0)
Injected flit rate average = 0.0103125
	minimum = 0.004 (at node 13)
	maximum = 0.016 (at node 1)
Accepted flit rate average= 0.0101875
	minimum = 0.007 (at node 1)
	maximum = 0.015 (at node 0)
Injected packet length average = 1
Accepted packet length average = 1
Total in-flight flits = 2 (0 measured)
latency change    = 1
throughput change = 1
Class 0:
Packet latency average = 19.4589
	minimum = 7
	maximum = 37
Network latency average = 19.4589
	minimum = 7
	maximum = 37
Slowest packet = 120688
Flit latency average = 19.4589
	minimum = 7
	maximum = 37
Slowest flit = 120688
Fragmentation average = 0
	minimum = 0
	maximum = 0
Injected packet rate average = 0.00996875
	minimum = 0.005 (at node 3)
	maximum = 0.013 (at node 1)
Accepted packet rate average = 0.009875
	minimum = 0.006 (at node 1)
	maximum = 0.0165 (at node 7)
Injected flit rate average = 0.00996875
	minimum = 0.005 (at node 3)
	maximum = 0.013 (at node 1)
Accepted flit rate average= 0.009875
	minimum = 0.006 (at node 1)
	maximum = 0.0165 (at node 7)
Injected packet length average = 1
Accepted packet length average = 1
Total in-flight flits = 3 (0 measured)
latency change    = 0.0315927
throughput change = 0.0316456
Class 0:
Packet latency average = 19.0127
	minimum = 7
	maximum = 37
Network latency average = 19.0127
	minimum = 7
	maximum = 37
Slowest packet = 121051
Flit latency average = 19.0127
	minimum = 7
	maximum = 37
Slowest flit = 121051
Fragmentation average = 0
	minimum = 0
	maximum = 0
Injected packet rate average = 0.0098125
	minimum = 0.006 (at node 9)
	maximum = 0.015 (at node 1)
Accepted packet rate average = 0.0098125
	minimum = 0.006 (at node 14)
	maximum = 0.015 (at node 11)
Injected flit rate average = 0.0098125
	minimum = 0.006 (at node 9)
	maximum = 0.015 (at node 1)
Accepted flit rate average= 0.0098125
	minimum = 0.006 (at node 14)
	maximum = 0.015 (at node 11)
Injected packet length average = 1
Accepted packet length average = 1
Total in-flight flits = 3 (0 measured)
latency change    = 0.0234644
throughput change = 0.00636943
Warmed up ...Time used is 3000 cycles
Class 0:
Packet latency average = 19.5882
	minimum = 7
	maximum = 37
Network latency average = 19.5882
	minimum = 7
	maximum = 37
Slowest packet = 121218
Flit latency average = 19.5064
	minimum = 7
	maximum = 37
Slowest flit = 121218
Fragmentation average = 0
	minimum = 0
	maximum = 0
Injected packet rate average = 0.009875
	minimum = 0.006 (at node 15)
	maximum = 0.017 (at node 1)
Accepted packet rate average = 0.00975
	minimum = 0.004 (at node 3)
	maximum = 0.017 (at node 7)
Injected flit rate average = 0.009875
	minimum = 0.006 (at node 15)
	maximum = 0.017 (at node 1)
Accepted flit rate average= 0.00975
	minimum = 0.004 (at node 3)
	maximum = 0.017 (at node 7)
Injected packet length average = 1
Accepted packet length average = 1
Total in-flight flits = 5 (5 measured)
latency change    = 0.0293797
throughput change = 0.00641026
Class 0:
Packet latency average = 19.185
	minimum = 7
	maximum = 37
Network latency average = 19.185
	minimum = 7
	maximum = 37
Slowest packet = 121218
Flit latency average = 19.1491
	minimum = 7
	maximum = 37
Slowest flit = 121218
Fragmentation average = 0
	minimum = 0
	maximum = 0
Injected packet rate average = 0.0100625
	minimum = 0.0075 (at node 11)
	maximum = 0.0135 (at node 8)
Accepted packet rate average = 0.0100625
	minimum = 0.0065 (at node 6)
	maximum = 0.014 (at node 1)
Injected flit rate average = 0.0100625
	minimum = 0.0075 (at node 11)
	maximum = 0.0135 (at node 8)
Accepted flit rate average= 0.0100625
	minimum = 0.0065 (at node 6)
	maximum = 0.014 (at node 1)
Injected packet length average = 1
Accepted packet length average = 1
Total in-flight flits = 3 (3 measured)
latency change    = 0.0210208
throughput change = 0.0310559
Class 0:
Packet latency average = 19.2204
	minimum = 7
	maximum = 37
Network latency average = 19.2204
	minimum = 7
	maximum = 37
Slowest packet = 121218
Flit latency average = 19.1968
	minimum = 7
	maximum = 37
Slowest flit = 121218
Fragmentation average = 0
	minimum = 0
	maximum = 0
Injected packet rate average = 0.0102292
	minimum = 0.00733333 (at node 11)
	maximum = 0.0136667 (at node 1)
Accepted packet rate average = 0.0102708
	minimum = 0.007 (at node 3)
	maximum = 0.013 (at node 1)
Injected flit rate average = 0.0102292
	minimum = 0.00733333 (at node 11)
	maximum = 0.0136667 (at node 1)
Accepted flit rate average= 0.0102708
	minimum = 0.007 (at node 3)
	maximum = 0.013 (at node 1)
Injected packet length average = 1
Accepted packet length average = 1
Total in-flight flits = 1 (1 measured)
latency change    = 0.00184466
throughput change = 0.020284
Draining all recorded packets ...
Draining remaining packets ...
Time taken is 6057 cycles
====== Overall Traffic Statistics ======
====== Traffic class 0 ======
Packet latency average = 19.5343 (100 samples)
	minimum = 7 (100 samples)
	maximum = 37.11 (100 samples)
Network latency average = 19.5343 (100 samples)
	minimum = 7 (100 samples)
	maximum = 37.11 (100 samples)
Flit latency average = 19.5486 (100 samples)
	minimum = 7 (100 samples)
	maximum = 37.11 (100 samples)
Fragmentation average = 0 (100 samples)
	minimum = 0 (100 samples)
	maximum = 0 (100 samples)
Injected packet rate average = 0.0100749 (100 samples)
	minimum = 0.00752979 (100 samples)
	maximum = 0.0129015 (100 samples)
Accepted packet rate average = 0.0100759 (100 samples)
	minimum = 0.00755502 (100 samples)
	maximum = 0.0127972 (100 samples)
Injected flit rate average = 0.0100749 (100 samples)
	minimum = 0.00752979 (100 samples)
	maximum = 0.0129015 (100 samples)
Accepted flit rate average = 0.0100759 (100 samples)
	minimum = 0.00755502 (100 samples)
	maximum = 0.0127972 (100 samples)
Injected packet size average = 1 (100 samples)
Accepted packet size average = 1 (100 samples)
Hops average = 3.50539 (100 samples)
Total run time 4.50884
