BEGIN Configuration File: /tmp/bs_1137237_349158.cfg
topology = mesh;
k = 4;
n = 2;
routing_function = gnn_ppo_route_4x4;
num_vcs = 4;
vc_buf_size = 4;
wait_for_tail_credit = 1;
vc_allocator = islip;
sw_allocator = islip;
alloc_iters = 1;
credit_delay = 2;
routing_delay = 1;
vc_alloc_delay = 1;
sw_alloc_delay = 1;
input_speedup = 2;
output_speedup = 1;
internal_speedup = 1.0;
traffic = uniform;
packet_size = 1;
sim_type = latency;
injection_rate = 0.1;
warmup_periods = 3;
sample_period = 1000;
sim_count = 100;
seed = 3;

END Configuration File: /tmp/bs_1137237_349158.cfg
Class 0:
Packet latency average = 19.563
	minimum = 7
	maximum = 47
Network latency average = 19.5617
	minimum = 7
	maximum = 47
Slowest packet = 113
Flit latency average = 19.5617
	minimum = 7
	maximum = 47
Slowest flit = 113
Fragmentation average = 0
	minimum = 0
	maximum = 0
Injected packet rate average = 0.09975
	minimum = 0.079 (at node 15)
	maximum = 0.115 (at node 9)
Accepted packet rate average = 0.09825
	minimum = 0.084 (at node 3)
	maximum = 0.114 (at node 9)
Injected flit rate average = 0.09975
	minimum = 0.079 (at node 15)
	maximum = 0.115 (at node 9)
Accepted flit rate average= 0.09825
	minimum = 0.084 (at node 3)
	maximum = 0.114 (at node 9)
Injected packet length average = 1
Accepted packet length average = 1
Total in-flight flits = 24 (0 measured)
latency change    = 1
throughput change = 1
Class 0:
Packet latency average = 19.4726
	minimum = 7
	maximum = 47
Network latency average = 19.4703
	minimum = 7
	maximum = 47
Slowest packet = 113
Flit latency average = 19.4703
	minimum = 7
	maximum = 47
Slowest flit = 113
Fragmentation average = 0
	minimum = 0
	maximum = 0
Injected packet rate average = 0.0980625
	minimum = 0.0885 (at node 0)
	maximum = 0.1085 (at node 9)
Accepted packet rate average = 0.0973438
	minimum = 0.086 (at node 10)
	maximum = 0.1095 (at node 7)
Injected flit rate average = 0.0980625
	minimum = 0.0885 (at node 0)
	maximum = 0.1085 (at node 9)
Accepted flit rate average= 0.0973438
	minimum = 0.086 (at node 10)
	maximum = 0.1095 (at node 7)
Injected packet length average = 1
Accepted packet length average = 1
Total in-flight flits = 23 (0 measured)
latency change    = 0.00464371
throughput change = 0.00930979
Class 0:
Packet latency average = 19.8936
	minimum = 7
	maximum = 44
Network latency average = 19.8936
	minimum = 7
	maximum = 44
Slowest packet = 3811
Flit latency average = 19.8936
	minimum = 7
	maximum = 44
Slowest flit = 3811
Fragmentation average = 0
	minimum = 0
	maximum = 0
Injected packet rate average = 0.0985
	minimum = 0.084 (at node 9)
	maximum = 0.114 (at node 12)
Accepted packet rate average = 0.0980625
	minimum = 0.087 (at node 12)
	maximum = 0.12 (at node 6)
Injected flit rate average = 0.0985
	minimum = 0.084 (at node 9)
	maximum = 0.114 (at node 12)
Accepted flit rate average= 0.0980625
	minimum = 0.087 (at node 12)
	maximum = 0.12 (at node 6)
Injected packet length average = 1
Accepted packet length average = 1
Total in-flight flits = 30 (0 measured)
latency change    = 0.0211632
throughput change = 0.00732951
Warmed up ...Time used is 3000 cycles
Class 0:
Packet latency average = 19.6325
	minimum = 7
	maximum = 46
Network latency average = 19.6325
	minimum = 7
	maximum = 46
Slowest packet = 4943
Flit latency average = 19.6789
	minimum = 7
	maximum = 46
Slowest flit = 4943
Fragmentation average = 0
	minimum = 0
	maximum = 0
Injected packet rate average = 0.097125
	minimum = 0.078 (at node 9)
	maximum = 0.112 (at node 12)
Accepted packet rate average = 0.097125
	minimum = 0.079 (at node 10)
	maximum = 0.118 (at node 13)
Injected flit rate average = 0.097125
	minimum = 0.078 (at node 9)
	maximum = 0.112 (at node 12)
Accepted flit rate average= 0.097125
	minimum = 0.079 (at node 10)
	maximum = 0.118 (at node 13)
Injected packet length average = 1
Accepted packet length average = 1
Total in-flight flits = 30 (30 measured)
latency change    = 0.0132951
throughput change = 0.00965251
Class 0:
Packet latency average = 19.6161
	minimum = 7
	maximum = 46
Network latency average = 19.6161
	minimum = 7
	maximum = 46
Slowest packet = 4943
Flit latency average = 19.6389
	minimum = 7
	maximum = 46
Slowest flit = 4943
Fragmentation average = 0
	minimum = 0
	maximum = 0
Injected packet rate average = 0.0990937
	minimum = 0.0865 (at node 14)
	maximum = 0.1155 (at node 12)
Accepted packet rate average = 0.0994375
	minimum = 0.0805 (at node 10)
	maximum = 0.113 (at node 0)
Injected flit rate average = 0.0990937
	minimum = 0.0865 (at node 14)
	maximum = 0.1155 (at node 12)
Accepted flit rate average= 0.0994375
	minimum = 0.0805 (at node 10)
	maximum = 0.113 (at node 0)
Injected packet length average = 1
Accepted packet length average = 1
Total in-flight flits = 19 (19 measured)
latency change    = 0.000837535
throughput change = 0.0232558
Class 0:
Packet latency average = 19.6879
	minimum = 7
	maximum = 46
Network latency average = 19.686
	minimum = 7
	maximum = 46
Slowest packet = 4943
Flit latency average = 19.7009
	minimum = 7
	maximum = 46
Slowest flit = 4943
Fragmentation average = 0
	minimum = 0
	maximum = 0
Injected packet rate average = 0.099
	minimum = 0.0883333 (at node 14)
	maximum = 0.111333 (at node 12)
Accepted packet rate average = 0.0988958
	minimum = 0.086 (at node 8)
	maximum = 0.11 (at node 13)
Injected flit rate average = 0.099
	minimum = 0.0883333 (at node 14)
	maximum = 0.111333 (at node 12)
Accepted flit rate average= 0.0988958
	minimum = 0.086 (at node 8)
	maximum = 0.11 (at node 13)
Injected packet length average = 1
Accepted packet length average = 1
Total in-flight flits = 35 (35 measured)
latency change    = 0.00364794
throughput change = 0.00547714
Draining all recorded packets ...
Draining remaining packets ...
Time taken is 6057 cycles
Class 0:
Packet latency average = 20.0032
	minimum = 7
	maximum = 41
Network latency average = 20.0026
	minimum = 7
	maximum = 41
Slowest packet = 10423
Flit latency average = 20.0026
	minimum = 7
	maximum = 41
Slowest flit = 10423
Fragmentation average = 0
	minimum = 0
	maximum = 0
Injected packet rate average = 0.09975
	minimum = 0.073 (at node 1)
	maximum = 0.119 (at node 13)
Accepted packet rate average = 0.0978125
	minimum = 0.083 (at node 11)
	maximum = 0.117 (at node 0)
Injected flit rate average = 0.09975
	minimum = 0.073 (at node 1)
	maximum = 0.119 (at node 13)
Accepted flit rate average= 0.0978125
	minimum = 0.083 (at node 11)
	maximum = 0.117 (at node 0)
Injected packet length average = 1
Accepted packet length average = 1
Total in-flight flits = 31 (0 measured)
latency change    = 1
throughput change = 1
Class 0:
Packet latency average = 19.6916
	minimum = 7
	maximum = 42
Network latency average = 19.6913
	minimum = 7
	maximum = 42
Slowest packet = 12507
Flit latency average = 19.6913
	minimum = 7
	maximum = 42
Slowest flit = 12507
Fragmentation average = 0
	minimum = 0
	maximum = 0
Injected packet rate average = 0.100875
	minimum = 0.092 (at node 1)
	maximum = 0.1145 (at node 14)
Accepted packet rate average = 0.0998125
	minimum = 0.089 (at node 8)
	maximum = 0.1095 (at node 0)
Injected flit rate average = 0.100875
	minimum = 0.092 (at node 1)
	maximum = 0.1145 (at node 14)
Accepted flit rate average= 0.0998125
	minimum = 0.089 (at node 8)
	maximum = 0.1095 (at node 0)
Injected packet length average = 1
Accepted packet length average = 1
Total in-flight flits = 34 (0 measured)
latency change    = 0.0158233
throughput change = 0.0200376
Class 0:
Packet latency average = 19.736
	minimum = 7
	maximum = 40
Network latency average = 19.736
	minimum = 7
	maximum = 40
Slowest packet = 14219
Flit latency average = 19.736
	minimum = 7
	maximum = 40
Slowest flit = 14219
Fragmentation average = 0
	minimum = 0
	maximum = 0
Injected packet rate average = 0.100375
	minimum = 0.068 (at node 8)
	maximum = 0.129 (at node 4)
Accepted packet rate average = 0.100375
	minimum = 0.078 (at node 8)
	maximum = 0.12 (at node 15)
Injected flit rate average = 0.100375
	minimum = 0.068 (at node 8)
	maximum = 0.129 (at node 4)
Accepted flit rate average= 0.100375
	minimum = 0.078 (at node 8)
	maximum = 0.12 (at node 15)
Injected packet length average = 1
Accepted packet length average = 1
Total in-flight flits = 34 (0 measured)
latency change    = 0.00224872
throughput change = 0.00560399
Warmed up ...Time used is 3000 cycles
Class 0:
Packet latency average = 19.7688
	minimum = 7
	maximum = 49
Network latency average = 19.7688
	minimum = 7
	maximum = 49
Slowest packet = 14984
Flit latency average = 19.8294
	minimum = 7
	maximum = 49
Slowest flit = 14984
Fragmentation average = 0
	minimum = 0
	maximum = 0
Injected packet rate average = 0.0993125
	minimum = 0.086 (at node 15)
	maximum = 0.119 (at node 9)
Accepted packet rate average = 0.1
	minimum = 0.089 (at node 10)
	maximum = 0.122 (at node 9)
Injected flit rate average = 0.0993125
	minimum = 0.086 (at node 15)
	maximum = 0.119 (at node 9)
Accepted flit rate average= 0.1
	minimum = 0.089 (at node 10)
	maximum = 0.122 (at node 9)
Injected packet length average = 1
Accepted packet length average = 1
Total in-flight flits = 23 (23 measured)
latency change    = 0.00166159
throughput change = 0.00375
Class 0:
Packet latency average = 19.8049
	minimum = 7
	maximum = 49
Network latency average = 19.8043
	minimum = 7
	maximum = 49
Slowest packet = 14984
Flit latency average = 19.8343
	minimum = 7
	maximum = 49
Slowest flit = 14984
Fragmentation average = 0
	minimum = 0
	maximum = 0
Injected packet rate average = 0.09925
	minimum = 0.088 (at node 1)
	maximum = 0.1065 (at node 3)
Accepted packet rate average = 0.0994063
	minimum = 0.092 (at node 0)
	maximum = 0.1145 (at node 1)
Injected flit rate average = 0.09925
	minimum = 0.088 (at node 1)
	maximum = 0.1065 (at node 3)
Accepted flit rate average= 0.0994063
	minimum = 0.092 (at node 0)
	maximum = 0.1145 (at node 1)
Injected packet length average = 1
Accepted packet length average = 1
Total in-flight flits = 29 (29 measured)
latency change    = 0.00182055
throughput change = 0.00597296
Class 0:
Packet latency average = 19.883
	minimum = 7
	maximum = 49
Network latency average = 19.8826
	minimum = 7
	maximum = 49
Slowest packet = 14984
Flit latency average = 19.9022
	minimum = 7
	maximum = 49
Slowest flit = 14984
Fragmentation average = 0
	minimum = 0
	maximum = 0
Injected packet rate average = 0.0986875
	minimum = 0.0873333 (at node 1)
	maximum = 0.110333 (at node 10)
Accepted packet rate average = 0.0986458
	minimum = 0.0906667 (at node 0)
	maximum = 0.110333 (at node 1)
Injected flit rate average = 0.0986875
	minimum = 0.0873333 (at node 1)
	maximum = 0.110333 (at node 10)
Accepted flit rate average= 0.0986458
	minimum = 0.0906667 (at node 0)
	maximum = 0.110333 (at node 1)
Injected packet length average = 1
Accepted packet length average = 1
Total in-flight flits = 36 (36 measured)
latency change    = 0.00392848
throughput change = 0.00770855
Draining all recorded packets ...
Draining remaining packets ...
Time taken is 6062 cycles
Class 0:
Packet latency average = 20.0657
	minimum = 7
	maximum = 42
Network latency average = 20.0657
	minimum = 7
	maximum = 42
Slowest packet = 20199
Flit latency average = 20.0657
	minimum = 7
	maximum = 42
Slowest flit = 20199
Fragmentation average = 0
	minimum = 0
	maximum = 0
Injected packet rate average = 0.101688
	minimum = 0.087 (at node 6)
	maximum = 0.124 (at node 13)
Accepted packet rate average = 0.0998125
	minimum = 0.081 (at node 0)
	maximum = 0.122 (at node 10)
Injected flit rate average = 0.101688
	minimum = 0.087 (at node 6)
	maximum = 0.124 (at node 13)
Accepted flit rate average= 0.0998125
	minimum = 0.081 (at node 0)
	maximum = 0.122 (at node 10)
Injected packet length average = 1
Accepted packet length average = 1
Total in-flight flits = 30 (0 measured)
latency change    = 1
throughput change = 1
Class 0:
Packet latency average = 19.8258
	minimum = 7
	maximum = 43
Network latency average = 19.8252
	minimum = 7
	maximum = 42
Slowest packet = 20199
Flit latency average = 19.8252
	minimum = 7
	maximum = 42
Slowest flit = 20199
Fragmentation average = 0
	minimum = 0
	maximum = 0
Injected packet rate average = 0.102188
	minimum = 0.089 (at node 4)
	maximum = 0.1145 (at node 5)
Accepted packet rate average = 0.100844
	minimum = 0.0895 (at node 0)
	maximum = 0.1125 (at node 4)
Injected flit rate average = 0.102188
	minimum = 0.089 (at node 4)
	maximum = 0.1145 (at node 5)
Accepted flit rate average= 0.100844
	minimum = 0.0895 (at node 0)
	maximum = 0.1125 (at node 4)
Injected packet length average = 1
Accepted packet length average = 1
Total in-flight flits = 43 (0 measured)
latency change    = 0.0121006
throughput change = 0.0102262
Class 0:
Packet latency average = 19.9167
	minimum = 7
	maximum = 43
Network latency average = 19.9161
	minimum = 7
	maximum = 43
Slowest packet = 23452
Flit latency average = 19.9161
	minimum = 7
	maximum = 43
Slowest flit = 23452
Fragmentation average = 0
	minimum = 0
	maximum = 0
Injected packet rate average = 0.0995625
	minimum = 0.086 (at node 0)
	maximum = 0.112 (at node 5)
Accepted packet rate average = 0.0998125
	minimum = 0.087 (at node 9)
	maximum = 0.118 (at node 4)
Injected flit rate average = 0.0995625
	minimum = 0.086 (at node 0)
	maximum = 0.112 (at node 5)
Accepted flit rate average= 0.0998125
	minimum = 0.087 (at node 9)
	maximum = 0.118 (at node 4)
Injected packet length average = 1
Accepted packet length average = 1
Total in-flight flits = 39 (0 measured)
latency change    = 0.00456272
throughput change = 0.0103319
Warmed up ...Time used is 3000 cycles
Class 0:
Packet latency average = 19.6483
	minimum = 7
	maximum = 47
Network latency average = 19.6464
	minimum = 7
	maximum = 47
Slowest packet = 25102
Flit latency average = 19.7264
	minimum = 7
	maximum = 47
Slowest flit = 25102
Fragmentation average = 0
	minimum = 0
	maximum = 0
Injected packet rate average = 0.102188
	minimum = 0.084 (at node 9)
	maximum = 0.117 (at node 14)
Accepted packet rate average = 0.102125
	minimum = 0.089 (at node 15)
	maximum = 0.115 (at node 2)
Injected flit rate average = 0.102188
	minimum = 0.084 (at node 9)
	maximum = 0.117 (at node 14)
Accepted flit rate average= 0.102125
	minimum = 0.089 (at node 15)
	maximum = 0.115 (at node 2)
Injected packet length average = 1
Accepted packet length average = 1
Total in-flight flits = 40 (40 measured)
latency change    = 0.0136624
throughput change = 0.0226438
Class 0:
Packet latency average = 19.7267
	minimum = 7
	maximum = 47
Network latency average = 19.7258
	minimum = 7
	maximum = 47
Slowest packet = 25102
Flit latency average = 19.7645
	minimum = 7
	maximum = 47
Slowest flit = 25102
Fragmentation average = 0
	minimum = 0
	maximum = 0
Injected packet rate average = 0.102656
	minimum = 0.0915 (at node 5)
	maximum = 0.115 (at node 15)
Accepted packet rate average = 0.103094
	minimum = 0.0885 (at node 10)
	maximum = 0.1135 (at node 2)
Injected flit rate average = 0.102656
	minimum = 0.0915 (at node 5)
	maximum = 0.115 (at node 15)
Accepted flit rate average= 0.103094
	minimum = 0.0885 (at node 10)
	maximum = 0.1135 (at node 2)
Injected packet length average = 1
Accepted packet length average = 1
Total in-flight flits = 25 (25 measured)
latency change    = 0.00397488
throughput change = 0.00939679
Class 0:
Packet latency average = 19.6029
	minimum = 7
	maximum = 47
Network latency average = 19.6022
	minimum = 7
	maximum = 47
Slowest packet = 25102
Flit latency average = 19.6296
	minimum = 7
	maximum = 47
Slowest flit = 25102
Fragmentation average = 0
	minimum = 0
	maximum = 0
Injected packet rate average = 0.100667
	minimum = 0.095 (at node 9)
	maximum = 0.111667 (at node 15)
Accepted packet rate average = 0.100854
	minimum = 0.093 (at node 3)
	maximum = 0.106667 (at node 1)
Injected flit rate average = 0.100667
	minimum = 0.095 (at node 9)
	maximum = 0.111667 (at node 15)
Accepted flit rate average= 0.100854
	minimum = 0.093 (at node 3)
	maximum = 0.106667 (at node 1)
Injected packet length average = 1
Accepted packet length average = 1
Total in-flight flits = 30 (30 measured)
latency change    = 0.00631608
throughput change = 0.0222062
Draining all recorded packets ...
Draining remaining packets ...
Time taken is 6058 cycles
Class 0:
Packet latency average = 19.9099
	minimum = 7
	maximum = 52
Network latency average = 19.9099
	minimum = 7
	maximum = 52
Slowest packet = 29361
Flit latency average = 19.9099
	minimum = 7
	maximum = 52
Slowest flit = 29361
Fragmentation average = 0
	minimum = 0
	maximum = 0
Injected packet rate average = 0.1035
	minimum = 0.084 (at node 7)
	maximum = 0.113 (at node 0)
Accepted packet rate average = 0.10125
	minimum = 0.083 (at node 13)
	maximum = 0.12 (at node 0)
Injected flit rate average = 0.1035
	minimum = 0.084 (at node 7)
	maximum = 0.113 (at node 0)
Accepted flit rate average= 0.10125
	minimum = 0.083 (at node 13)
	maximum = 0.12 (at node 0)
Injected packet length average = 1
Accepted packet length average = 1
Total in-flight flits = 36 (0 measured)
latency change    = 1
throughput change = 1
Class 0:
Packet latency average = 19.869
	minimum = 7
	maximum = 52
Network latency average = 19.8672
	minimum = 7
	maximum = 52
Slowest packet = 29361
Flit latency average = 19.8672
	minimum = 7
	maximum = 52
Slowest flit = 29361
Fragmentation average = 0
	minimum = 0
	maximum = 0
Injected packet rate average = 0.101938
	minimum = 0.09 (at node 7)
	maximum = 0.1065 (at node 1)
Accepted packet rate average = 0.100937
	minimum = 0.085 (at node 13)
	maximum = 0.1185 (at node 11)
Injected flit rate average = 0.101938
	minimum = 0.09 (at node 7)
	maximum = 0.1065 (at node 1)
Accepted flit rate average= 0.100937
	minimum = 0.085 (at node 13)
	maximum = 0.1185 (at node 11)
Injected packet length average = 1
Accepted packet length average = 1
Total in-flight flits = 32 (0 measured)
latency change    = 0.00205527
throughput change = 0.00309598
Class 0:
Packet latency average = 19.4232
	minimum = 7
	maximum = 43
Network latency average = 19.4232
	minimum = 7
	maximum = 43
Slowest packet = 32132
Flit latency average = 19.4232
	minimum = 7
	maximum = 43
Slowest flit = 32132
Fragmentation average = 0
	minimum = 0
	maximum = 0
Injected packet rate average = 0.097875
	minimum = 0.078 (at node 3)
	maximum = 0.117 (at node 4)
Accepted packet rate average = 0.097625
	minimum = 0.076 (at node 12)
	maximum = 0.114 (at node 6)
Injected flit rate average = 0.097875
	minimum = 0.078 (at node 3)
	maximum = 0.117 (at node 4)
Accepted flit rate average= 0.097625
	minimum = 0.076 (at node 12)
	maximum = 0.114 (at node 6)
Injected packet length average = 1
Accepted packet length average = 1
Total in-flight flits = 36 (0 measured)
latency change    = 0.0229553
throughput change = 0.0339309
Warmed up ...Time used is 3000 cycles
Class 0:
Packet latency average = 19.5094
	minimum = 7
	maximum = 40
Network latency average = 19.5094
	minimum = 7
	maximum = 40
Slowest packet = 34829
Flit latency average = 19.5721
	minimum = 7
	maximum = 40
Slowest flit = 34829
Fragmentation average = 0
	minimum = 0
	maximum = 0
Injected packet rate average = 0.1025
	minimum = 0.092 (at node 7)
	maximum = 0.119 (at node 11)
Accepted packet rate average = 0.10225
	minimum = 0.087 (at node 3)
	maximum = 0.119 (at node 11)
Injected flit rate average = 0.1025
	minimum = 0.092 (at node 7)
	maximum = 0.119 (at node 11)
Accepted flit rate average= 0.10225
	minimum = 0.087 (at node 3)
	maximum = 0.119 (at node 11)
Injected packet length average = 1
Accepted packet length average = 1
Total in-flight flits = 40 (40 measured)
latency change    = 0.00441837
throughput change = 0.0452323
Class 0:
Packet latency average = 19.7429
	minimum = 7
	maximum = 47
Network latency average = 19.7414
	minimum = 7
	maximum = 47
Slowest packet = 36317
Flit latency average = 19.7706
	minimum = 7
	maximum = 47
Slowest flit = 36317
Fragmentation average = 0
	minimum = 0
	maximum = 0
Injected packet rate average = 0.100594
	minimum = 0.0895 (at node 14)
	maximum = 0.112 (at node 0)
Accepted packet rate average = 0.100687
	minimum = 0.0915 (at node 3)
	maximum = 0.1145 (at node 11)
Injected flit rate average = 0.100594
	minimum = 0.0895 (at node 14)
	maximum = 0.112 (at node 0)
Accepted flit rate average= 0.100687
	minimum = 0.0915 (at node 3)
	maximum = 0.1145 (at node 11)
Injected packet length average = 1
Accepted packet length average = 1
Total in-flight flits = 33 (33 measured)
latency change    = 0.0118302
throughput change = 0.0155183
Class 0:
Packet latency average = 19.7804
	minimum = 7
	maximum = 47
Network latency average = 19.7794
	minimum = 7
	maximum = 47
Slowest packet = 36317
Flit latency average = 19.7984
	minimum = 7
	maximum = 47
Slowest flit = 36317
Fragmentation average = 0
	minimum = 0
	maximum = 0
Injected packet rate average = 0.101562
	minimum = 0.0956667 (at node 15)
	maximum = 0.111 (at node 0)
Accepted packet rate average = 0.1015
	minimum = 0.0906667 (at node 13)
	maximum = 0.116 (at node 11)
Injected flit rate average = 0.101562
	minimum = 0.0956667 (at node 15)
	maximum = 0.111 (at node 0)
Accepted flit rate average= 0.1015
	minimum = 0.0906667 (at node 13)
	maximum = 0.116 (at node 11)
Injected packet length average = 1
Accepted packet length average = 1
Total in-flight flits = 39 (39 measured)
latency change    = 0.00189375
throughput change = 0.00800493
Draining all recorded packets ...
Draining remaining packets ...
Time taken is 6067 cycles
Class 0:
Packet latency average = 19.6779
	minimum = 7
	maximum = 42
Network latency average = 19.6779
	minimum = 7
	maximum = 42
Slowest packet = 39599
Flit latency average = 19.6779
	minimum = 7
	maximum = 42
Slowest flit = 39599
Fragmentation average = 0
	minimum = 0
	maximum = 0
Injected packet rate average = 0.0986875
	minimum = 0.074 (at node 10)
	maximum = 0.117 (at node 11)
Accepted packet rate average = 0.0968125
	minimum = 0.084 (at node 3)
	maximum = 0.112 (at node 5)
Injected flit rate average = 0.0986875
	minimum = 0.074 (at node 10)
	maximum = 0.117 (at node 11)
Accepted flit rate average= 0.0968125
	minimum = 0.084 (at node 3)
	maximum = 0.112 (at node 5)
Injected packet length average = 1
Accepted packet length average = 1
Total in-flight flits = 30 (0 measured)
latency change    = 1
throughput change = 1
Class 0:
Packet latency average = 19.8386
	minimum = 7
	maximum = 44
Network latency average = 19.8386
	minimum = 7
	maximum = 44
Slowest packet = 40727
Flit latency average = 19.8386
	minimum = 7
	maximum = 44
Slowest flit = 40727
Fragmentation average = 0
	minimum = 0
	maximum = 0
Injected packet rate average = 0.0975938
	minimum = 0.0805 (at node 10)
	maximum = 0.105 (at node 8)
Accepted packet rate average = 0.0965938
	minimum = 0.0855 (at node 6)
	maximum = 0.1075 (at node 4)
Injected flit rate average = 0.0975938
	minimum = 0.0805 (at node 10)
	maximum = 0.105 (at node 8)
Accepted flit rate average= 0.0965938
	minimum = 0.0855 (at node 6)
	maximum = 0.1075 (at node 4)
Injected packet length average = 1
Accepted packet length average = 1
Total in-flight flits = 32 (0 measured)
latency change    = 0.00810073
throughput change = 0.00226464
Class 0:
Packet latency average = 19.6267
	minimum = 7
	maximum = 43
Network latency average = 19.6242
	minimum = 7
	maximum = 43
Slowest packet = 41947
Flit latency average = 19.6242
	minimum = 7
	maximum = 43
Slowest flit = 41947
Fragmentation average = 0
	minimum = 0
	maximum = 0
Injected packet rate average = 0.09875
	minimum = 0.08 (at node 5)
	maximum = 0.117 (at node 8)
Accepted packet rate average = 0.099125
	minimum = 0.082 (at node 9)
	maximum = 0.112 (at node 0)
Injected flit rate average = 0.09875
	minimum = 0.08 (at node 5)
	maximum = 0.117 (at node 8)
Accepted flit rate average= 0.099125
	minimum = 0.082 (at node 9)
	maximum = 0.112 (at node 0)
Injected packet length average = 1
Accepted packet length average = 1
Total in-flight flits = 26 (0 measured)
latency change    = 0.0107929
throughput change = 0.0255359
Warmed up ...Time used is 3000 cycles
Class 0:
Packet latency average = 20.0058
	minimum = 7
	maximum = 40
Network latency average = 20.0038
	minimum = 7
	maximum = 40
Slowest packet = 43752
Flit latency average = 20.0548
	minimum = 7
	maximum = 40
Slowest flit = 43752
Fragmentation average = 0
	minimum = 0
	maximum = 0
Injected packet rate average = 0.099
	minimum = 0.087 (at node 5)
	maximum = 0.111 (at node 2)
Accepted packet rate average = 0.09925
	minimum = 0.08 (at node 0)
	maximum = 0.117 (at node 11)
Injected flit rate average = 0.099
	minimum = 0.087 (at node 5)
	maximum = 0.111 (at node 2)
Accepted flit rate average= 0.09925
	minimum = 0.08 (at node 0)
	maximum = 0.117 (at node 11)
Injected packet length average = 1
Accepted packet length average = 1
Total in-flight flits = 22 (22 measured)
latency change    = 0.0189459
throughput change = 0.00125945
Class 0:
Packet latency average = 19.7355
	minimum = 7
	maximum = 40
Network latency average = 19.7346
	minimum = 7
	maximum = 40
Slowest packet = 43752
Flit latency average = 19.7623
	minimum = 7
	maximum = 40
Slowest flit = 43752
Fragmentation average = 0
	minimum = 0
	maximum = 0
Injected packet rate average = 0.0989063
	minimum = 0.09 (at node 11)
	maximum = 0.104 (at node 15)
Accepted packet rate average = 0.099
	minimum = 0.0865 (at node 9)
	maximum = 0.1125 (at node 1)
Injected flit rate average = 0.0989063
	minimum = 0.09 (at node 11)
	maximum = 0.104 (at node 15)
Accepted flit rate average= 0.099
	minimum = 0.0865 (at node 9)
	maximum = 0.1125 (at node 1)
Injected packet length average = 1
Accepted packet length average = 1
Total in-flight flits = 23 (23 measured)
latency change    = 0.0136932
throughput change = 0.00252525
Class 0:
Packet latency average = 19.6469
	minimum = 7
	maximum = 43
Network latency average = 19.6456
	minimum = 7
	maximum = 43
Slowest packet = 47155
Flit latency average = 19.6647
	minimum = 7
	maximum = 43
Slowest flit = 47155
Fragmentation average = 0
	minimum = 0
	maximum = 0
Injected packet rate average = 0.0985
	minimum = 0.091 (at node 5)
	maximum = 0.104667 (at node 2)
Accepted packet rate average = 0.0984167
	minimum = 0.086 (at node 9)
	maximum = 0.108333 (at node 6)
Injected flit rate average = 0.0985
	minimum = 0.091 (at node 5)
	maximum = 0.104667 (at node 2)
Accepted flit rate average= 0.0984167
	minimum = 0.086 (at node 9)
	maximum = 0.108333 (at node 6)
Injected packet length average = 1
Accepted packet length average = 1
Total in-flight flits = 30 (30 measured)
latency change    = 0.00451206
throughput change = 0.00592718
Draining all recorded packets ...
Draining remaining packets ...
Time taken is 6061 cycles
Class 0:
Packet latency average = 19.7405
	minimum = 7
	maximum = 41
Network latency average = 19.7399
	minimum = 7
	maximum = 41
Slowest packet = 49346
Flit latency average = 19.7399
	minimum = 7
	maximum = 41
Slowest flit = 49346
Fragmentation average = 0
	minimum = 0
	maximum = 0
Injected packet rate average = 0.10175
	minimum = 0.089 (at node 7)
	maximum = 0.113 (at node 12)
Accepted packet rate average = 0.100187
	minimum = 0.085 (at node 12)
	maximum = 0.117 (at node 15)
Injected flit rate average = 0.10175
	minimum = 0.089 (at node 7)
	maximum = 0.113 (at node 12)
Accepted flit rate average= 0.100187
	minimum = 0.085 (at node 12)
	maximum = 0.117 (at node 15)
Injected packet length average = 1
Accepted packet length average = 1
Total in-flight flits = 25 (0 measured)
latency change    = 1
throughput change = 1
Class 0:
Packet latency average = 19.5787
	minimum = 7
	maximum = 41
Network latency average = 19.5783
	minimum = 7
	maximum = 41
Slowest packet = 49346
Flit latency average = 19.5783
	minimum = 7
	maximum = 41
Slowest flit = 49346
Fragmentation average = 0
	minimum = 0
	maximum = 0
Injected packet rate average = 0.0995313
	minimum = 0.085 (at node 3)
	maximum = 0.111 (at node 12)
Accepted packet rate average = 0.0987187
	minimum = 0.089 (at node 2)
	maximum = 0.114 (at node 9)
Injected flit rate average = 0.0995313
	minimum = 0.085 (at node 3)
	maximum = 0.111 (at node 12)
Accepted flit rate average= 0.0987187
	minimum = 0.089 (at node 2)
	maximum = 0.114 (at node 9)
Injected packet length average = 1
Accepted packet length average = 1
Total in-flight flits = 26 (0 measured)
latency change    = 0.00826524
throughput change = 0.0148781
Class 0:
Packet latency average = 19.7665
	minimum = 7
	maximum = 50
Network latency average = 19.7653
	minimum = 7
	maximum = 49
Slowest packet = 52519
Flit latency average = 19.7653
	minimum = 7
	maximum = 49
Slowest flit = 52519
Fragmentation average = 0
	minimum = 0
	maximum = 0
Injected packet rate average = 0.0985
	minimum = 0.087 (at node 7)
	maximum = 0.108 (at node 10)
Accepted packet rate average = 0.09825
	minimum = 0.079 (at node 6)
	maximum = 0.122 (at node 15)
Injected flit rate average = 0.0985
	minimum = 0.087 (at node 7)
	maximum = 0.108 (at node 10)
Accepted flit rate average= 0.09825
	minimum = 0.079 (at node 6)
	maximum = 0.122 (at node 15)
Injected packet length average = 1
Accepted packet length average = 1
Total in-flight flits = 30 (0 measured)
latency change    = 0.00950471
throughput change = 0.00477099
Warmed up ...Time used is 3000 cycles
Class 0:
Packet latency average = 19.7367
	minimum = 7
	maximum = 41
Network latency average = 19.7354
	minimum = 7
	maximum = 41
Slowest packet = 54288
Flit latency average = 19.7925
	minimum = 7
	maximum = 41
Slowest flit = 54288
Fragmentation average = 0
	minimum = 0
	maximum = 0
Injected packet rate average = 0.098375
	minimum = 0.087 (at node 4)
	maximum = 0.12 (at node 15)
Accepted packet rate average = 0.0985
	minimum = 0.085 (at node 3)
	maximum = 0.121 (at node 11)
Injected flit rate average = 0.098375
	minimum = 0.087 (at node 4)
	maximum = 0.12 (at node 15)
Accepted flit rate average= 0.0985
	minimum = 0.085 (at node 3)
	maximum = 0.121 (at node 11)
Injected packet length average = 1
Accepted packet length average = 1
Total in-flight flits = 28 (28 measured)
latency change    = 0.00150985
throughput change = 0.00253807
Class 0:
Packet latency average = 19.5502
	minimum = 7
	maximum = 41
Network latency average = 19.5492
	minimum = 7
	maximum = 41
Slowest packet = 54288
Flit latency average = 19.5792
	minimum = 7
	maximum = 41
Slowest flit = 54288
Fragmentation average = 0
	minimum = 0
	maximum = 0
Injected packet rate average = 0.0997813
	minimum = 0.085 (at node 5)
	maximum = 0.1135 (at node 15)
Accepted packet rate average = 0.0996563
	minimum = 0.09 (at node 4)
	maximum = 0.1135 (at node 2)
Injected flit rate average = 0.0997813
	minimum = 0.085 (at node 5)
	maximum = 0.1135 (at node 15)
Accepted flit rate average= 0.0996563
	minimum = 0.09 (at node 4)
	maximum = 0.1135 (at node 2)
Injected packet length average = 1
Accepted packet length average = 1
Total in-flight flits = 34 (34 measured)
latency change    = 0.00954293
throughput change = 0.0116024
Class 0:
Packet latency average = 19.7033
	minimum = 7
	maximum = 45
Network latency average = 19.702
	minimum = 7
	maximum = 45
Slowest packet = 56420
Flit latency average = 19.7207
	minimum = 7
	maximum = 45
Slowest flit = 56420
Fragmentation average = 0
	minimum = 0
	maximum = 0
Injected packet rate average = 0.101708
	minimum = 0.0933333 (at node 5)
	maximum = 0.114333 (at node 15)
Accepted packet rate average = 0.101583
	minimum = 0.095 (at node 3)
	maximum = 0.111333 (at node 11)
Injected flit rate average = 0.101708
	minimum = 0.0933333 (at node 5)
	maximum = 0.114333 (at node 15)
Accepted flit rate average= 0.101583
	minimum = 0.095 (at node 3)
	maximum = 0.111333 (at node 11)
Injected packet length average = 1
Accepted packet length average = 1
Total in-flight flits = 36 (36 measured)
latency change    = 0.00776959
throughput change = 0.0189705
Draining all recorded packets ...
Draining remaining packets ...
Time taken is 6057 cycles
Class 0:
Packet latency average = 20.1565
	minimum = 7
	maximum = 42
Network latency average = 20.1565
	minimum = 7
	maximum = 42
Slowest packet = 58388
Flit latency average = 20.1565
	minimum = 7
	maximum = 42
Slowest flit = 58388
Fragmentation average = 0
	minimum = 0
	maximum = 0
Injected packet rate average = 0.0986875
	minimum = 0.074 (at node 9)
	maximum = 0.121 (at node 4)
Accepted packet rate average = 0.096625
	minimum = 0.078 (at node 9)
	maximum = 0.114 (at node 11)
Injected flit rate average = 0.0986875
	minimum = 0.074 (at node 9)
	maximum = 0.121 (at node 4)
Accepted flit rate average= 0.096625
	minimum = 0.078 (at node 9)
	maximum = 0.114 (at node 11)
Injected packet length average = 1
Accepted packet length average = 1
Total in-flight flits = 33 (0 measured)
latency change    = 1
throughput change = 1
Class 0:
Packet latency average = 19.9787
	minimum = 7
	maximum = 42
Network latency average = 19.9787
	minimum = 7
	maximum = 42
Slowest packet = 58388
Flit latency average = 19.9787
	minimum = 7
	maximum = 42
Slowest flit = 58388
Fragmentation average = 0
	minimum = 0
	maximum = 0
Injected packet rate average = 0.0991563
	minimum = 0.085 (at node 9)
	maximum = 0.112 (at node 5)
Accepted packet rate average = 0.0981875
	minimum = 0.0865 (at node 14)
	maximum = 0.1065 (at node 8)
Injected flit rate average = 0.0991563
	minimum = 0.085 (at node 9)
	maximum = 0.112 (at node 5)
Accepted flit rate average= 0.0981875
	minimum = 0.0865 (at node 14)
	maximum = 0.1065 (at node 8)
Injected packet length average = 1
Accepted packet length average = 1
Total in-flight flits = 31 (0 measured)
latency change    = 0.00890234
throughput change = 0.0159134
Class 0:
Packet latency average = 19.7732
	minimum = 7
	maximum = 41
Network latency average = 19.7732
	minimum = 7
	maximum = 41
Slowest packet = 61204
Flit latency average = 19.7732
	minimum = 7
	maximum = 41
Slowest flit = 61204
Fragmentation average = 0
	minimum = 0
	maximum = 0
Injected packet rate average = 0.104563
	minimum = 0.092 (at node 7)
	maximum = 0.117 (at node 5)
Accepted packet rate average = 0.104188
	minimum = 0.088 (at node 9)
	maximum = 0.125 (at node 2)
Injected flit rate average = 0.104563
	minimum = 0.092 (at node 7)
	maximum = 0.117 (at node 5)
Accepted flit rate average= 0.104188
	minimum = 0.088 (at node 9)
	maximum = 0.125 (at node 2)
Injected packet length average = 1
Accepted packet length average = 1
Total in-flight flits = 37 (0 measured)
latency change    = 0.0103893
throughput change = 0.0575885
Warmed up ...Time used is 3000 cycles
Class 0:
Packet latency average = 19.6375
	minimum = 7
	maximum = 45
Network latency average = 19.6375
	minimum = 7
	maximum = 45
Slowest packet = 64013
Flit latency average = 19.6731
	minimum = 7
	maximum = 45
Slowest flit = 64013
Fragmentation average = 0
	minimum = 0
	maximum = 0
Injected packet rate average = 0.100812
	minimum = 0.084 (at node 13)
	maximum = 0.122 (at node 11)
Accepted packet rate average = 0.10075
	minimum = 0.087 (at node 6)
	maximum = 0.119 (at node 8)
Injected flit rate average = 0.100812
	minimum = 0.084 (at node 13)
	maximum = 0.122 (at node 11)
Accepted flit rate average= 0.10075
	minimum = 0.087 (at node 6)
	maximum = 0.119 (at node 8)
Injected packet length average = 1
Accepted packet length average = 1
Total in-flight flits = 38 (38 measured)
latency change    = 0.00691459
throughput change = 0.0341191
Class 0:
Packet latency average = 19.6062
	minimum = 7
	maximum = 45
Network latency average = 19.6059
	minimum = 7
	maximum = 45
Slowest packet = 64013
Flit latency average = 19.6243
	minimum = 7
	maximum = 45
Slowest flit = 64013
Fragmentation average = 0
	minimum = 0
	maximum = 0
Injected packet rate average = 0.099
	minimum = 0.088 (at node 10)
	maximum = 0.112 (at node 15)
Accepted packet rate average = 0.0991563
	minimum = 0.0885 (at node 6)
	maximum = 0.114 (at node 15)
Injected flit rate average = 0.099
	minimum = 0.088 (at node 10)
	maximum = 0.112 (at node 15)
Accepted flit rate average= 0.0991563
	minimum = 0.0885 (at node 6)
	maximum = 0.114 (at node 15)
Injected packet length average = 1
Accepted packet length average = 1
Total in-flight flits = 32 (32 measured)
latency change    = 0.00159511
throughput change = 0.0160731
Class 0:
Packet latency average = 19.653
	minimum = 7
	maximum = 48
Network latency average = 19.6528
	minimum = 7
	maximum = 48
Slowest packet = 66529
Flit latency average = 19.6646
	minimum = 7
	maximum = 48
Slowest flit = 66529
Fragmentation average = 0
	minimum = 0
	maximum = 0
Injected packet rate average = 0.100542
	minimum = 0.0926667 (at node 1)
	maximum = 0.108667 (at node 15)
Accepted packet rate average = 0.100687
	minimum = 0.0923333 (at node 6)
	maximum = 0.109333 (at node 15)
Injected flit rate average = 0.100542
	minimum = 0.0926667 (at node 1)
	maximum = 0.108667 (at node 15)
Accepted flit rate average= 0.100687
	minimum = 0.0923333 (at node 6)
	maximum = 0.109333 (at node 15)
Injected packet length average = 1
Accepted packet length average = 1
Total in-flight flits = 30 (30 measured)
latency change    = 0.00238426
throughput change = 0.0152079
Draining all recorded packets ...
Draining remaining packets ...
Time taken is 6057 cycles
Class 0:
Packet latency average = 20.1889
	minimum = 7
	maximum = 47
Network latency average = 20.1889
	minimum = 7
	maximum = 47
Slowest packet = 69025
Flit latency average = 20.1889
	minimum = 7
	maximum = 47
Slowest flit = 69025
Fragmentation average = 0
	minimum = 0
	maximum = 0
Injected packet rate average = 0.102875
	minimum = 0.088 (at node 4)
	maximum = 0.12 (at node 1)
Accepted packet rate average = 0.100937
	minimum = 0.08 (at node 12)
	maximum = 0.122 (at node 8)
Injected flit rate average = 0.102875
	minimum = 0.088 (at node 4)
	maximum = 0.12 (at node 1)
Accepted flit rate average= 0.100937
	minimum = 0.08 (at node 12)
	maximum = 0.122 (at node 8)
Injected packet length average = 1
Accepted packet length average = 1
Total in-flight flits = 31 (0 measured)
latency change    = 1
throughput change = 1
Class 0:
Packet latency average = 19.9207
	minimum = 7
	maximum = 47
Network latency average = 19.9201
	minimum = 7
	maximum = 47
Slowest packet = 69025
Flit latency average = 19.9201
	minimum = 7
	maximum = 47
Slowest flit = 69025
Fragmentation average = 0
	minimum = 0
	maximum = 0
Injected packet rate average = 0.103469
	minimum = 0.093 (at node 4)
	maximum = 0.116 (at node 1)
Accepted packet rate average = 0.102438
	minimum = 0.086 (at node 12)
	maximum = 0.1145 (at node 2)
Injected flit rate average = 0.103469
	minimum = 0.093 (at node 4)
	maximum = 0.116 (at node 1)
Accepted flit rate average= 0.102438
	minimum = 0.086 (at node 12)
	maximum = 0.1145 (at node 2)
Injected packet length average = 1
Accepted packet length average = 1
Total in-flight flits = 33 (0 measured)
latency change    = 0.0134619
throughput change = 0.0146431
Class 0:
Packet latency average = 19.9945
	minimum = 7
	maximum = 46
Network latency average = 19.9921
	minimum = 7
	maximum = 46
Slowest packet = 70929
Flit latency average = 19.9921
	minimum = 7
	maximum = 46
Slowest flit = 70929
Fragmentation average = 0
	minimum = 0
	maximum = 0
Injected packet rate average = 0.102063
	minimum = 0.079 (at node 13)
	maximum = 0.121 (at node 5)
Accepted packet rate average = 0.102438
	minimum = 0.084 (at node 15)
	maximum = 0.113 (at node 13)
Injected flit rate average = 0.102063
	minimum = 0.079 (at node 13)
	maximum = 0.121 (at node 5)
Accepted flit rate average= 0.102438
	minimum = 0.084 (at node 15)
	maximum = 0.113 (at node 13)
Injected packet length average = 1
Accepted packet length average = 1
Total in-flight flits = 27 (0 measured)
latency change    = 0.00369229
throughput change = 0
Warmed up ...Time used is 3000 cycles
Class 0:
Packet latency average = 19.7465
	minimum = 7
	maximum = 41
Network latency average = 19.7465
	minimum = 7
	maximum = 41
Slowest packet = 73105
Flit latency average = 19.7607
	minimum = 7
	maximum = 41
Slowest flit = 73105
Fragmentation average = 0
	minimum = 0
	maximum = 0
Injected packet rate average = 0.0960625
	minimum = 0.08 (at node 2)
	maximum = 0.111 (at node 12)
Accepted packet rate average = 0.096125
	minimum = 0.074 (at node 9)
	maximum = 0.113 (at node 8)
Injected flit rate average = 0.0960625
	minimum = 0.08 (at node 2)
	maximum = 0.111 (at node 12)
Accepted flit rate average= 0.096125
	minimum = 0.074 (at node 9)
	maximum = 0.113 (at node 8)
Injected packet length average = 1
Accepted packet length average = 1
Total in-flight flits = 26 (26 measured)
latency change    = 0.0125583
throughput change = 0.0656697
Class 0:
Packet latency average = 19.8443
	minimum = 7
	maximum = 44
Network latency average = 19.844
	minimum = 7
	maximum = 44
Slowest packet = 74245
Flit latency average = 19.8501
	minimum = 7
	maximum = 44
Slowest flit = 74245
Fragmentation average = 0
	minimum = 0
	maximum = 0
Injected packet rate average = 0.0979063
	minimum = 0.09 (at node 2)
	maximum = 0.106 (at node 1)
Accepted packet rate average = 0.0977813
	minimum = 0.0825 (at node 7)
	maximum = 0.11 (at node 0)
Injected flit rate average = 0.0979063
	minimum = 0.09 (at node 2)
	maximum = 0.106 (at node 1)
Accepted flit rate average= 0.0977813
	minimum = 0.0825 (at node 7)
	maximum = 0.11 (at node 0)
Injected packet length average = 1
Accepted packet length average = 1
Total in-flight flits = 31 (31 measured)
latency change    = 0.00492678
throughput change = 0.0169383
Class 0:
Packet latency average = 19.8381
	minimum = 7
	maximum = 45
Network latency average = 19.8379
	minimum = 7
	maximum = 45
Slowest packet = 76683
Flit latency average = 19.8419
	minimum = 7
	maximum = 45
Slowest flit = 76683
Fragmentation average = 0
	minimum = 0
	maximum = 0
Injected packet rate average = 0.101125
	minimum = 0.0936667 (at node 6)
	maximum = 0.107333 (at node 9)
Accepted packet rate average = 0.101083
	minimum = 0.0906667 (at node 7)
	maximum = 0.108333 (at node 0)
Injected flit rate average = 0.101125
	minimum = 0.0936667 (at node 6)
	maximum = 0.107333 (at node 9)
Accepted flit rate average= 0.101083
	minimum = 0.0906667 (at node 7)
	maximum = 0.108333 (at node 0)
Injected packet length average = 1
Accepted packet length average = 1
Total in-flight flits = 29 (29 measured)
latency change    = 0.000310477
throughput change = 0.0326669
Class 0:
Packet latency average = 19.855
	minimum = 7
	maximum = 49
Network latency average = 19.8546
	minimum = 7
	maximum = 49
Slowest packet = 77726
Flit latency average = 19.8575
	minimum = 7
	maximum = 49
Slowest flit = 77726
Fragmentation average = 0
	minimum = 0
	maximum = 0
Injected packet rate average = 0.101609
	minimum = 0.09425 (at node 6)
	maximum = 0.10925 (at node 1)
Accepted packet rate average = 0.101406
	minimum = 0.09275 (at node 9)
	maximum = 0.10875 (at node 8)
Injected flit rate average = 0.101609
	minimum = 0.09425 (at node 6)
	maximum = 0.10925 (at node 1)
Accepted flit rate average= 0.101406
	minimum = 0.09275 (at node 9)
	maximum = 0.10875 (at node 8)
Injected packet length average = 1
Accepted packet length average = 1
Total in-flight flits = 41 (41 measured)
latency change    = 0.000850474
throughput change = 0.00318439
Draining all recorded packets ...
Draining remaining packets ...
Time taken is 7075 cycles
Class 0:
Packet latency average = 19.5052
	minimum = 7
	maximum = 41
Network latency average = 19.5052
	minimum = 7
	maximum = 41
Slowest packet = 79994
Flit latency average = 19.5052
	minimum = 7
	maximum = 41
Slowest flit = 79994
Fragmentation average = 0
	minimum = 0
	maximum = 0
Injected packet rate average = 0.0974375
	minimum = 0.084 (at node 12)
	maximum = 0.112 (at node 8)
Accepted packet rate average = 0.0955
	minimum = 0.079 (at node 3)
	maximum = 0.113 (at node 13)
Injected flit rate average = 0.0974375
	minimum = 0.084 (at node 12)
	maximum = 0.112 (at node 8)
Accepted flit rate average= 0.0955
	minimum = 0.079 (at node 3)
	maximum = 0.113 (at node 13)
Injected packet length average = 1
Accepted packet length average = 1
Total in-flight flits = 31 (0 measured)
latency change    = 1
throughput change = 1
Class 0:
Packet latency average = 19.5896
	minimum = 7
	maximum = 49
Network latency average = 19.5889
	minimum = 7
	maximum = 49
Slowest packet = 81132
Flit latency average = 19.5889
	minimum = 7
	maximum = 49
Slowest flit = 81132
Fragmentation average = 0
	minimum = 0
	maximum = 0
Injected packet rate average = 0.0988437
	minimum = 0.089 (at node 12)
	maximum = 0.1125 (at node 6)
Accepted packet rate average = 0.0976875
	minimum = 0.086 (at node 3)
	maximum = 0.11 (at node 10)
Injected flit rate average = 0.0988437
	minimum = 0.089 (at node 12)
	maximum = 0.1125 (at node 6)
Accepted flit rate average= 0.0976875
	minimum = 0.086 (at node 3)
	maximum = 0.11 (at node 10)
Injected packet length average = 1
Accepted packet length average = 1
Total in-flight flits = 37 (0 measured)
latency change    = 0.00430513
throughput change = 0.0223928
Class 0:
Packet latency average = 19.9247
	minimum = 7
	maximum = 41
Network latency average = 19.9247
	minimum = 7
	maximum = 41
Slowest packet = 83396
Flit latency average = 19.9247
	minimum = 7
	maximum = 41
Slowest flit = 83396
Fragmentation average = 0
	minimum = 0
	maximum = 0
Injected packet rate average = 0.09825
	minimum = 0.078 (at node 7)
	maximum = 0.114 (at node 4)
Accepted packet rate average = 0.0988125
	minimum = 0.078 (at node 5)
	maximum = 0.123 (at node 10)
Injected flit rate average = 0.09825
	minimum = 0.078 (at node 7)
	maximum = 0.114 (at node 4)
Accepted flit rate average= 0.0988125
	minimum = 0.078 (at node 5)
	maximum = 0.123 (at node 10)
Injected packet length average = 1
Accepted packet length average = 1
Total in-flight flits = 28 (0 measured)
latency change    = 0.0168213
throughput change = 0.0113852
Warmed up ...Time used is 3000 cycles
Class 0:
Packet latency average = 19.8461
	minimum = 7
	maximum = 39
Network latency average = 19.8454
	minimum = 7
	maximum = 39
Slowest packet = 85253
Flit latency average = 19.8532
	minimum = 7
	maximum = 39
Slowest flit = 85253
Fragmentation average = 0
	minimum = 0
	maximum = 0
Injected packet rate average = 0.0995
	minimum = 0.081 (at node 3)
	maximum = 0.112 (at node 0)
Accepted packet rate average = 0.0991875
	minimum = 0.085 (at node 7)
	maximum = 0.117 (at node 11)
Injected flit rate average = 0.0995
	minimum = 0.081 (at node 3)
	maximum = 0.112 (at node 0)
Accepted flit rate average= 0.0991875
	minimum = 0.085 (at node 7)
	maximum = 0.117 (at node 11)
Injected packet length average = 1
Accepted packet length average = 1
Total in-flight flits = 33 (33 measured)
latency change    = 0.00396432
throughput change = 0.00378072
Class 0:
Packet latency average = 19.9226
	minimum = 7
	maximum = 49
Network latency average = 19.9219
	minimum = 7
	maximum = 49
Slowest packet = 85934
Flit latency average = 19.9252
	minimum = 7
	maximum = 49
Slowest flit = 85934
Fragmentation average = 0
	minimum = 0
	maximum = 0
Injected packet rate average = 0.0988437
	minimum = 0.088 (at node 14)
	maximum = 0.109 (at node 4)
Accepted packet rate average = 0.0989687
	minimum = 0.091 (at node 9)
	maximum = 0.1105 (at node 13)
Injected flit rate average = 0.0988437
	minimum = 0.088 (at node 14)
	maximum = 0.109 (at node 4)
Accepted flit rate average= 0.0989687
	minimum = 0.091 (at node 9)
	maximum = 0.1105 (at node 13)
Injected packet length average = 1
Accepted packet length average = 1
Total in-flight flits = 24 (24 measured)
latency change    = 0.00384145
throughput change = 0.00221029
Class 0:
Packet latency average = 20.007
	minimum = 7
	maximum = 55
Network latency average = 20.0066
	minimum = 7
	maximum = 55
Slowest packet = 88078
Flit latency average = 20.0082
	minimum = 7
	maximum = 55
Slowest flit = 88078
Fragmentation average = 0
	minimum = 0
	maximum = 0
Injected packet rate average = 0.0989167
	minimum = 0.089 (at node 14)
	maximum = 0.108667 (at node 4)
Accepted packet rate average = 0.098875
	minimum = 0.09 (at node 5)
	maximum = 0.11 (at node 13)
Injected flit rate average = 0.0989167
	minimum = 0.089 (at node 14)
	maximum = 0.108667 (at node 4)
Accepted flit rate average= 0.098875
	minimum = 0.09 (at node 5)
	maximum = 0.11 (at node 13)
Injected packet length average = 1
Accepted packet length average = 1
Total in-flight flits = 30 (30 measured)
latency change    = 0.00421891
throughput change = 0.000948167
Draining all recorded packets ...
Draining remaining packets ...
Time taken is 6058 cycles
Class 0:
Packet latency average = 19.5849
	minimum = 7
	maximum = 41
Network latency average = 19.5849
	minimum = 7
	maximum = 41
Slowest packet = 88619
Flit latency average = 19.5849
	minimum = 7
	maximum = 41
Slowest flit = 88619
Fragmentation average = 0
	minimum = 0
	maximum = 0
Injected packet rate average = 0.10025
	minimum = 0.084 (at node 4)
	maximum = 0.122 (at node 3)
Accepted packet rate average = 0.0983125
	minimum = 0.08 (at node 0)
	maximum = 0.119 (at node 14)
Injected flit rate average = 0.10025
	minimum = 0.084 (at node 4)
	maximum = 0.122 (at node 3)
Accepted flit rate average= 0.0983125
	minimum = 0.08 (at node 0)
	maximum = 0.119 (at node 14)
Injected packet length average = 1
Accepted packet length average = 1
Total in-flight flits = 31 (0 measured)
latency change    = 1
throughput change = 1
Class 0:
Packet latency average = 19.8876
	minimum = 7
	maximum = 42
Network latency average = 19.8873
	minimum = 7
	maximum = 42
Slowest packet = 90531
Flit latency average = 19.8873
	minimum = 7
	maximum = 42
Slowest flit = 90531
Fragmentation average = 0
	minimum = 0
	maximum = 0
Injected packet rate average = 0.0993125
	minimum = 0.088 (at node 4)
	maximum = 0.115 (at node 3)
Accepted packet rate average = 0.0981563
	minimum = 0.084 (at node 3)
	maximum = 0.114 (at node 8)
Injected flit rate average = 0.0993125
	minimum = 0.088 (at node 4)
	maximum = 0.115 (at node 3)
Accepted flit rate average= 0.0981563
	minimum = 0.084 (at node 3)
	maximum = 0.114 (at node 8)
Injected packet length average = 1
Accepted packet length average = 1
Total in-flight flits = 37 (0 measured)
latency change    = 0.0152228
throughput change = 0.00159185
Class 0:
Packet latency average = 19.9631
	minimum = 7
	maximum = 49
Network latency average = 19.9631
	minimum = 7
	maximum = 49
Slowest packet = 92506
Flit latency average = 19.9631
	minimum = 7
	maximum = 49
Slowest flit = 92506
Fragmentation average = 0
	minimum = 0
	maximum = 0
Injected packet rate average = 0.101062
	minimum = 0.086 (at node 12)
	maximum = 0.119 (at node 4)
Accepted packet rate average = 0.101625
	minimum = 0.083 (at node 11)
	maximum = 0.128 (at node 10)
Injected flit rate average = 0.101062
	minimum = 0.086 (at node 12)
	maximum = 0.119 (at node 4)
Accepted flit rate average= 0.101625
	minimum = 0.083 (at node 11)
	maximum = 0.128 (at node 10)
Injected packet length average = 1
Accepted packet length average = 1
Total in-flight flits = 28 (0 measured)
latency change    = 0.00378119
throughput change = 0.0341328
Warmed up ...Time used is 3000 cycles
Class 0:
Packet latency average = 19.7546
	minimum = 7
	maximum = 41
Network latency average = 19.7546
	minimum = 7
	maximum = 41
Slowest packet = 94852
Flit latency average = 19.7813
	minimum = 7
	maximum = 41
Slowest flit = 94852
Fragmentation average = 0
	minimum = 0
	maximum = 0
Injected packet rate average = 0.100437
	minimum = 0.078 (at node 14)
	maximum = 0.109 (at node 13)
Accepted packet rate average = 0.100312
	minimum = 0.084 (at node 14)
	maximum = 0.112 (at node 3)
Injected flit rate average = 0.100437
	minimum = 0.078 (at node 14)
	maximum = 0.109 (at node 13)
Accepted flit rate average= 0.100312
	minimum = 0.084 (at node 14)
	maximum = 0.112 (at node 3)
Injected packet length average = 1
Accepted packet length average = 1
Total in-flight flits = 30 (30 measured)
latency change    = 0.0105546
throughput change = 0.0130841
Class 0:
Packet latency average = 19.7984
	minimum = 7
	maximum = 44
Network latency average = 19.7984
	minimum = 7
	maximum = 44
Slowest packet = 95218
Flit latency average = 19.8113
	minimum = 7
	maximum = 44
Slowest flit = 95218
Fragmentation average = 0
	minimum = 0
	maximum = 0
Injected packet rate average = 0.100562
	minimum = 0.0925 (at node 14)
	maximum = 0.115 (at node 5)
Accepted packet rate average = 0.100375
	minimum = 0.0865 (at node 14)
	maximum = 0.1105 (at node 9)
Injected flit rate average = 0.100562
	minimum = 0.0925 (at node 14)
	maximum = 0.115 (at node 5)
Accepted flit rate average= 0.100375
	minimum = 0.0865 (at node 14)
	maximum = 0.1105 (at node 9)
Injected packet length average = 1
Accepted packet length average = 1
Total in-flight flits = 34 (34 measured)
latency change    = 0.00221076
throughput change = 0.000622665
Class 0:
Packet latency average = 19.8524
	minimum = 7
	maximum = 44
Network latency average = 19.8524
	minimum = 7
	maximum = 44
Slowest packet = 95218
Flit latency average = 19.8608
	minimum = 7
	maximum = 44
Slowest flit = 95218
Fragmentation average = 0
	minimum = 0
	maximum = 0
Injected packet rate average = 0.0991875
	minimum = 0.0933333 (at node 15)
	maximum = 0.107667 (at node 5)
Accepted packet rate average = 0.0990833
	minimum = 0.092 (at node 3)
	maximum = 0.106667 (at node 5)
Injected flit rate average = 0.0991875
	minimum = 0.0933333 (at node 15)
	maximum = 0.107667 (at node 5)
Accepted flit rate average= 0.0990833
	minimum = 0.092 (at node 3)
	maximum = 0.106667 (at node 5)
Injected packet length average = 1
Accepted packet length average = 1
Total in-flight flits = 33 (33 measured)
latency change    = 0.00272018
throughput change = 0.0130362
Draining all recorded packets ...
Draining remaining packets ...
Time taken is 6063 cycles
Class 0:
Packet latency average = 19.5543
	minimum = 7
	maximum = 42
Network latency average = 19.5537
	minimum = 7
	maximum = 42
Slowest packet = 98235
Flit latency average = 19.5537
	minimum = 7
	maximum = 42
Slowest flit = 98235
Fragmentation average = 0
	minimum = 0
	maximum = 0
Injected packet rate average = 0.0936875
	minimum = 0.078 (at node 2)
	maximum = 0.109 (at node 14)
Accepted packet rate average = 0.092
	minimum = 0.082 (at node 4)
	maximum = 0.109 (at node 2)
Injected flit rate average = 0.0936875
	minimum = 0.078 (at node 2)
	maximum = 0.109 (at node 14)
Accepted flit rate average= 0.092
	minimum = 0.082 (at node 4)
	maximum = 0.109 (at node 2)
Injected packet length average = 1
Accepted packet length average = 1
Total in-flight flits = 27 (0 measured)
latency change    = 1
throughput change = 1
Class 0:
Packet latency average = 19.8382
	minimum = 7
	maximum = 46
Network latency average = 19.8378
	minimum = 7
	maximum = 46
Slowest packet = 100840
Flit latency average = 19.8378
	minimum = 7
	maximum = 46
Slowest flit = 100840
Fragmentation average = 0
	minimum = 0
	maximum = 0
Injected packet rate average = 0.0957812
	minimum = 0.083 (at node 13)
	maximum = 0.106 (at node 12)
Accepted packet rate average = 0.094625
	minimum = 0.0865 (at node 10)
	maximum = 0.1085 (at node 2)
Injected flit rate average = 0.0957812
	minimum = 0.083 (at node 13)
	maximum = 0.106 (at node 12)
Accepted flit rate average= 0.094625
	minimum = 0.0865 (at node 10)
	maximum = 0.1085 (at node 2)
Injected packet length average = 1
Accepted packet length average = 1
Total in-flight flits = 37 (0 measured)
latency change    = 0.0143072
throughput change = 0.0277411
Class 0:
Packet latency average = 19.5971
	minimum = 7
	maximum = 41
Network latency average = 19.5971
	minimum = 7
	maximum = 41
Slowest packet = 101979
Flit latency average = 19.5971
	minimum = 7
	maximum = 41
Slowest flit = 101979
Fragmentation average = 0
	minimum = 0
	maximum = 0
Injected packet rate average = 0.099625
	minimum = 0.082 (at node 6)
	maximum = 0.111 (at node 11)
Accepted packet rate average = 0.100375
	minimum = 0.087 (at node 14)
	maximum = 0.121 (at node 2)
Injected flit rate average = 0.099625
	minimum = 0.082 (at node 6)
	maximum = 0.111 (at node 11)
Accepted flit rate average= 0.100375
	minimum = 0.087 (at node 14)
	maximum = 0.121 (at node 2)
Injected packet length average = 1
Accepted packet length average = 1
Total in-flight flits = 25 (0 measured)
latency change    = 0.0122998
throughput change = 0.0572852
Warmed up ...Time used is 3000 cycles
Class 0:
Packet latency average = 19.5433
	minimum = 7
	maximum = 41
Network latency average = 19.5413
	minimum = 7
	maximum = 41
Slowest packet = 103550
Flit latency average = 19.5924
	minimum = 7
	maximum = 41
Slowest flit = 103550
Fragmentation average = 0
	minimum = 0
	maximum = 0
Injected packet rate average = 0.10025
	minimum = 0.085 (at node 14)
	maximum = 0.111 (at node 9)
Accepted packet rate average = 0.0998125
	minimum = 0.083 (at node 0)
	maximum = 0.115 (at node 10)
Injected flit rate average = 0.10025
	minimum = 0.085 (at node 14)
	maximum = 0.111 (at node 9)
Accepted flit rate average= 0.0998125
	minimum = 0.083 (at node 0)
	maximum = 0.115 (at node 10)
Injected packet length average = 1
Accepted packet length average = 1
Total in-flight flits = 32 (32 measured)
latency change    = 0.0027569
throughput change = 0.00563557
Class 0:
Packet latency average = 19.6556
	minimum = 7
	maximum = 42
Network latency average = 19.6546
	minimum = 7
	maximum = 42
Slowest packet = 105242
Flit latency average = 19.6791
	minimum = 7
	maximum = 42
Slowest flit = 105242
Fragmentation average = 0
	minimum = 0
	maximum = 0
Injected packet rate average = 0.100562
	minimum = 0.092 (at node 0)
	maximum = 0.1085 (at node 10)
Accepted packet rate average = 0.100312
	minimum = 0.089 (at node 0)
	maximum = 0.1115 (at node 12)
Injected flit rate average = 0.100562
	minimum = 0.092 (at node 0)
	maximum = 0.1085 (at node 10)
Accepted flit rate average= 0.100312
	minimum = 0.089 (at node 0)
	maximum = 0.1115 (at node 12)
Injected packet length average = 1
Accepted packet length average = 1
Total in-flight flits = 33 (33 measured)
latency change    = 0.00571421
throughput change = 0.00498442
Class 0:
Packet latency average = 19.7143
	minimum = 7
	maximum = 44
Network latency average = 19.7133
	minimum = 7
	maximum = 44
Slowest packet = 106972
Flit latency average = 19.7291
	minimum = 7
	maximum = 44
Slowest flit = 106972
Fragmentation average = 0
	minimum = 0
	maximum = 0
Injected packet rate average = 0.102167
	minimum = 0.094 (at node 11)
	maximum = 0.11 (at node 15)
Accepted packet rate average = 0.10175
	minimum = 0.0946667 (at node 2)
	maximum = 0.111667 (at node 1)
Injected flit rate average = 0.102167
	minimum = 0.094 (at node 11)
	maximum = 0.11 (at node 15)
Accepted flit rate average= 0.10175
	minimum = 0.0946667 (at node 2)
	maximum = 0.111667 (at node 1)
Injected packet length average = 1
Accepted packet length average = 1
Total in-flight flits = 45 (45 measured)
latency change    = 0.00298116
throughput change = 0.0141278
Draining all recorded packets ...
Draining remaining packets ...
Time taken is 6062 cycles
Class 0:
Packet latency average = 20.0006
	minimum = 7
	maximum = 49
Network latency average = 19.9994
	minimum = 7
	maximum = 49
Slowest packet = 108134
Flit latency average = 19.9994
	minimum = 7
	maximum = 49
Slowest flit = 108134
Fragmentation average = 0
	minimum = 0
	maximum = 0
Injected packet rate average = 0.101562
	minimum = 0.089 (at node 9)
	maximum = 0.117 (at node 12)
Accepted packet rate average = 0.0999375
	minimum = 0.074 (at node 13)
	maximum = 0.119 (at node 2)
Injected flit rate average = 0.101562
	minimum = 0.089 (at node 9)
	maximum = 0.117 (at node 12)
Accepted flit rate average= 0.0999375
	minimum = 0.074 (at node 13)
	maximum = 0.119 (at node 2)
Injected packet length average = 1
Accepted packet length average = 1
Total in-flight flits = 26 (0 measured)
latency change    = 1
throughput change = 1
Class 0:
Packet latency average = 19.8762
	minimum = 7
	maximum = 49
Network latency average = 19.875
	minimum = 7
	maximum = 49
Slowest packet = 108134
Flit latency average = 19.875
	minimum = 7
	maximum = 49
Slowest flit = 108134
Fragmentation average = 0
	minimum = 0
	maximum = 0
Injected packet rate average = 0.0992813
	minimum = 0.087 (at node 9)
	maximum = 0.116 (at node 12)
Accepted packet rate average = 0.0984687
	minimum = 0.0835 (at node 13)
	maximum = 0.1125 (at node 2)
Injected flit rate average = 0.0992813
	minimum = 0.087 (at node 9)
	maximum = 0.116 (at node 12)
Accepted flit rate average= 0.0984687
	minimum = 0.0835 (at node 13)
	maximum = 0.1125 (at node 2)
Injected packet length average = 1
Accepted packet length average = 1
Total in-flight flits = 26 (0 measured)
latency change    = 0.00625851
throughput change = 0.0149159
Class 0:
Packet latency average = 20.0089
	minimum = 7
	maximum = 62
Network latency average = 20.0089
	minimum = 7
	maximum = 62
Slowest packet = 112427
Flit latency average = 20.0089
	minimum = 7
	maximum = 62
Slowest flit = 112427
Fragmentation average = 0
	minimum = 0
	maximum = 0
Injected packet rate average = 0.099125
	minimum = 0.081 (at node 10)
	maximum = 0.115 (at node 12)
Accepted packet rate average = 0.0988125
	minimum = 0.079 (at node 6)
	maximum = 0.114 (at node 11)
Injected flit rate average = 0.099125
	minimum = 0.081 (at node 10)
	maximum = 0.115 (at node 12)
Accepted flit rate average= 0.0988125
	minimum = 0.079 (at node 6)
	maximum = 0.114 (at node 11)
Injected packet length average = 1
Accepted packet length average = 1
Total in-flight flits = 31 (0 measured)
latency change    = 0.00662833
throughput change = 0.00347881
Warmed up ...Time used is 3000 cycles
Class 0:
Packet latency average = 19.7214
	minimum = 7
	maximum = 45
Network latency average = 19.7214
	minimum = 7
	maximum = 45
Slowest packet = 113182
Flit latency average = 19.7683
	minimum = 7
	maximum = 45
Slowest flit = 113182
Fragmentation average = 0
	minimum = 0
	maximum = 0
Injected packet rate average = 0.0980625
	minimum = 0.082 (at node 8)
	maximum = 0.118 (at node 9)
Accepted packet rate average = 0.0979375
	minimum = 0.086 (at node 4)
	maximum = 0.115 (at node 0)
Injected flit rate average = 0.0980625
	minimum = 0.082 (at node 8)
	maximum = 0.118 (at node 9)
Accepted flit rate average= 0.0979375
	minimum = 0.086 (at node 4)
	maximum = 0.115 (at node 0)
Injected packet length average = 1
Accepted packet length average = 1
Total in-flight flits = 33 (33 measured)
latency change    = 0.0145782
throughput change = 0.00893427
Class 0:
Packet latency average = 19.7994
	minimum = 7
	maximum = 45
Network latency average = 19.7994
	minimum = 7
	maximum = 45
Slowest packet = 113182
Flit latency average = 19.8223
	minimum = 7
	maximum = 45
Slowest flit = 113182
Fragmentation average = 0
	minimum = 0
	maximum = 0
Injected packet rate average = 0.0973125
	minimum = 0.0835 (at node 15)
	maximum = 0.112 (at node 1)
Accepted packet rate average = 0.0974062
	minimum = 0.083 (at node 7)
	maximum = 0.107 (at node 12)
Injected flit rate average = 0.0973125
	minimum = 0.0835 (at node 15)
	maximum = 0.112 (at node 1)
Accepted flit rate average= 0.0974062
	minimum = 0.083 (at node 7)
	maximum = 0.107 (at node 12)
Injected packet length average = 1
Accepted packet length average = 1
Total in-flight flits = 28 (28 measured)
latency change    = 0.00394267
throughput change = 0.00545396
Class 0:
Packet latency average = 19.7336
	minimum = 7
	maximum = 53
Network latency average = 19.7333
	minimum = 7
	maximum = 53
Slowest packet = 115977
Flit latency average = 19.749
	minimum = 7
	maximum = 53
Slowest flit = 115977
Fragmentation average = 0
	minimum = 0
	maximum = 0
Injected packet rate average = 0.0976458
	minimum = 0.0863333 (at node 15)
	maximum = 0.103 (at node 9)
Accepted packet rate average = 0.0976042
	minimum = 0.0863333 (at node 7)
	maximum = 0.110333 (at node 12)
Injected flit rate average = 0.0976458
	minimum = 0.0863333 (at node 15)
	maximum = 0.103 (at node 9)
Accepted flit rate average= 0.0976042
	minimum = 0.0863333 (at node 7)
	maximum = 0.110333 (at node 12)
Injected packet length average = 1
Accepted packet length average = 1
Total in-flight flits = 33 (33 measured)
latency change    = 0.00333717
throughput change = 0.00202775
Draining all recorded packets ...
Draining remaining packets ...
Time taken is 6067 cycles
Class 0:
Packet latency average = 19.9237
	minimum = 7
	maximum = 53
Network latency average = 19.9224
	minimum = 7
	maximum = 53
Slowest packet = 117309
Flit latency average = 19.9224
	minimum = 7
	maximum = 53
Slowest flit = 117309
Fragmentation average = 0
	minimum = 0
	maximum = 0
Injected packet rate average = 0.0971875
	minimum = 0.083 (at node 7)
	maximum = 0.112 (at node 8)
Accepted packet rate average = 0.095
	minimum = 0.078 (at node 15)
	maximum = 0.106 (at node 4)
Injected flit rate average = 0.0971875
	minimum = 0.083 (at node 7)
	maximum = 0.112 (at node 8)
Accepted flit rate average= 0.095
	minimum = 0.078 (at node 15)
	maximum = 0.106 (at node 4)
Injected packet length average = 1
Accepted packet length average = 1
Total in-flight flits = 35 (0 measured)
latency change    = 1
throughput change = 1
Class 0:
Packet latency average = 19.8512
	minimum = 7
	maximum = 53
Network latency average = 19.8496
	minimum = 7
	maximum = 53
Slowest packet = 117309
Flit latency average = 19.8496
	minimum = 7
	maximum = 53
Slowest flit = 117309
Fragmentation average = 0
	minimum = 0
	maximum = 0
Injected packet rate average = 0.0988437
	minimum = 0.089 (at node 13)
	maximum = 0.1075 (at node 15)
Accepted packet rate average = 0.097875
	minimum = 0.0865 (at node 15)
	maximum = 0.1115 (at node 1)
Injected flit rate average = 0.0988437
	minimum = 0.089 (at node 13)
	maximum = 0.1075 (at node 15)
Accepted flit rate average= 0.097875
	minimum = 0.0865 (at node 15)
	maximum = 0.1115 (at node 1)
Injected packet length average = 1
Accepted packet length average = 1
Total in-flight flits = 31 (0 measured)
latency change    = 0.00365071
throughput change = 0.0293742
Class 0:
Packet latency average = 19.5909
	minimum = 7
	maximum = 41
Network latency average = 19.5902
	minimum = 7
	maximum = 41
Slowest packet = 120815
Flit latency average = 19.5902
	minimum = 7
	maximum = 41
Slowest flit = 120815
Fragmentation average = 0
	minimum = 0
	maximum = 0
Injected packet rate average = 0.09875
	minimum = 0.078 (at node 8)
	maximum = 0.132 (at node 15)
Accepted packet rate average = 0.0986875
	minimum = 0.081 (at node 9)
	maximum = 0.112 (at node 5)
Injected flit rate average = 0.09875
	minimum = 0.078 (at node 8)
	maximum = 0.132 (at node 15)
Accepted flit rate average= 0.0986875
	minimum = 0.081 (at node 9)
	maximum = 0.112 (at node 5)
Injected packet length average = 1
Accepted packet length average = 1
Total in-flight flits = 32 (0 measured)
latency change    = 0.0132885
throughput change = 0.00823306
Warmed up ...Time used is 3000 cycles
Class 0:
Packet latency average = 19.7612
	minimum = 7
	maximum = 41
Network latency average = 19.7605
	minimum = 7
	maximum = 41
Slowest packet = 122106
Flit latency average = 19.7926
	minimum = 7
	maximum = 41
Slowest flit = 122106
Fragmentation average = 0
	minimum = 0
	maximum = 0
Injected packet rate average = 0.0985625
	minimum = 0.087 (at node 1)
	maximum = 0.11 (at node 11)
Accepted packet rate average = 0.0985625
	minimum = 0.08 (at node 9)
	maximum = 0.122 (at node 1)
Injected flit rate average = 0.0985625
	minimum = 0.087 (at node 1)
	maximum = 0.11 (at node 11)
Accepted flit rate average= 0.0985625
	minimum = 0.08 (at node 9)
	maximum = 0.122 (at node 1)
Injected packet length average = 1
Accepted packet length average = 1
Total in-flight flits = 32 (32 measured)
latency change    = 0.00861714
throughput change = 0.00126823
Class 0:
Packet latency average = 19.8877
	minimum = 7
	maximum = 43
Network latency average = 19.8871
	minimum = 7
	maximum = 43
Slowest packet = 124671
Flit latency average = 19.9016
	minimum = 7
	maximum = 43
Slowest flit = 124671
Fragmentation average = 0
	minimum = 0
	maximum = 0
Injected packet rate average = 0.100219
	minimum = 0.092 (at node 9)
	maximum = 0.108 (at node 11)
Accepted packet rate average = 0.100375
	minimum = 0.0855 (at node 3)
	maximum = 0.114 (at node 1)
Injected flit rate average = 0.100219
	minimum = 0.092 (at node 9)
	maximum = 0.108 (at node 11)
Accepted flit rate average= 0.100375
	minimum = 0.0855 (at node 3)
	maximum = 0.114 (at node 1)
Injected packet length average = 1
Accepted packet length average = 1
Total in-flight flits = 27 (27 measured)
latency change    = 0.00636426
throughput change = 0.0180573
Class 0:
Packet latency average = 19.8738
	minimum = 7
	maximum = 43
Network latency average = 19.8734
	minimum = 7
	maximum = 43
Slowest packet = 124671
Flit latency average = 19.8832
	minimum = 7
	maximum = 43
Slowest flit = 124671
Fragmentation average = 0
	minimum = 0
	maximum = 0
Injected packet rate average = 0.100417
	minimum = 0.0893333 (at node 9)
	maximum = 0.107667 (at node 12)
Accepted packet rate average = 0.10025
	minimum = 0.092 (at node 9)
	maximum = 0.114333 (at node 1)
Injected flit rate average = 0.100417
	minimum = 0.0893333 (at node 9)
	maximum = 0.107667 (at node 12)
Accepted flit rate average= 0.10025
	minimum = 0.092 (at node 9)
	maximum = 0.114333 (at node 1)
Injected packet length average = 1
Accepted packet length average = 1
Total in-flight flits = 40 (40 measured)
latency change    = 0.000698731
throughput change = 0.00124688
Draining all recorded packets ...
Draining remaining packets ...
Time taken is 6070 cycles
Class 0:
Packet latency average = 19.8041
	minimum = 7
	maximum = 41
Network latency average = 19.8041
	minimum = 7
	maximum = 41
Slowest packet = 127519
Flit latency average = 19.8041
	minimum = 7
	maximum = 41
Slowest flit = 127519
Fragmentation average = 0
	minimum = 0
	maximum = 0
Injected packet rate average = 0.09675
	minimum = 0.079 (at node 10)
	maximum = 0.107 (at node 6)
Accepted packet rate average = 0.0944375
	minimum = 0.077 (at node 6)
	maximum = 0.121 (at node 7)
Injected flit rate average = 0.09675
	minimum = 0.079 (at node 10)
	maximum = 0.107 (at node 6)
Accepted flit rate average= 0.0944375
	minimum = 0.077 (at node 6)
	maximum = 0.121 (at node 7)
Injected packet length average = 1
Accepted packet length average = 1
Total in-flight flits = 37 (0 measured)
latency change    = 1
throughput change = 1
Class 0:
Packet latency average = 19.8512
	minimum = 7
	maximum = 44
Network latency average = 19.85
	minimum = 7
	maximum = 43
Slowest packet = 129331
Flit latency average = 19.85
	minimum = 7
	maximum = 43
Slowest flit = 129331
Fragmentation average = 0
	minimum = 0
	maximum = 0
Injected packet rate average = 0.098875
	minimum = 0.0895 (at node 5)
	maximum = 0.107 (at node 15)
Accepted packet rate average = 0.0980937
	minimum = 0.078 (at node 4)
	maximum = 0.126 (at node 7)
Injected flit rate average = 0.098875
	minimum = 0.0895 (at node 5)
	maximum = 0.107 (at node 15)
Accepted flit rate average= 0.0980937
	minimum = 0.078 (at node 4)
	maximum = 0.126 (at node 7)
Injected packet length average = 1
Accepted packet length average = 1
Total in-flight flits = 25 (0 measured)
latency change    = 0.00237382
throughput change = 0.037273
Class 0:
Packet latency average = 19.7167
	minimum = 7
	maximum = 43
Network latency average = 19.7167
	minimum = 7
	maximum = 43
Slowest packet = 130146
Flit latency average = 19.7167
	minimum = 7
	maximum = 43
Slowest flit = 130146
Fragmentation average = 0
	minimum = 0
	maximum = 0
Injected packet rate average = 0.099625
	minimum = 0.09 (at node 2)
	maximum = 0.111 (at node 9)
Accepted packet rate average = 0.0995
	minimum = 0.082 (at node 2)
	maximum = 0.119 (at node 12)
Injected flit rate average = 0.099625
	minimum = 0.09 (at node 2)
	maximum = 0.111 (at node 9)
Accepted flit rate average= 0.0995
	minimum = 0.082 (at node 2)
	maximum = 0.119 (at node 12)
Injected packet length average = 1
Accepted packet length average = 1
Total in-flight flits = 27 (0 measured)
latency change    = 0.00682254
throughput change = 0.0141332
Warmed up ...Time used is 3000 cycles
Class 0:
Packet latency average = 20.0306
	minimum = 7
	maximum = 47
Network latency average = 20.0306
	minimum = 7
	maximum = 47
Slowest packet = 132302
Flit latency average = 20.0739
	minimum = 7
	maximum = 47
Slowest flit = 132302
Fragmentation average = 0
	minimum = 0
	maximum = 0
Injected packet rate average = 0.1005
	minimum = 0.083 (at node 7)
	maximum = 0.125 (at node 9)
Accepted packet rate average = 0.0998125
	minimum = 0.086 (at node 10)
	maximum = 0.114 (at node 13)
Injected flit rate average = 0.1005
	minimum = 0.083 (at node 7)
	maximum = 0.125 (at node 9)
Accepted flit rate average= 0.0998125
	minimum = 0.086 (at node 10)
	maximum = 0.114 (at node 13)
Injected packet length average = 1
Accepted packet length average = 1
Total in-flight flits = 38 (38 measured)
latency change    = 0.0156693
throughput change = 0.00313087
Class 0:
Packet latency average = 20.0723
	minimum = 7
	maximum = 48
Network latency average = 20.0723
	minimum = 7
	maximum = 48
Slowest packet = 134200
Flit latency average = 20.0933
	minimum = 7
	maximum = 48
Slowest flit = 134200
Fragmentation average = 0
	minimum = 0
	maximum = 0
Injected packet rate average = 0.101219
	minimum = 0.087 (at node 15)
	maximum = 0.116 (at node 9)
Accepted packet rate average = 0.101156
	minimum = 0.089 (at node 7)
	maximum = 0.1115 (at node 13)
Injected flit rate average = 0.101219
	minimum = 0.087 (at node 15)
	maximum = 0.116 (at node 9)
Accepted flit rate average= 0.101156
	minimum = 0.089 (at node 7)
	maximum = 0.1115 (at node 13)
Injected packet length average = 1
Accepted packet length average = 1
Total in-flight flits = 29 (29 measured)
latency change    = 0.00207754
throughput change = 0.0132839
Class 0:
Packet latency average = 20.0087
	minimum = 7
	maximum = 48
Network latency average = 20.0087
	minimum = 7
	maximum = 48
Slowest packet = 134200
Flit latency average = 20.0229
	minimum = 7
	maximum = 48
Slowest flit = 134200
Fragmentation average = 0
	minimum = 0
	maximum = 0
Injected packet rate average = 0.101813
	minimum = 0.0916667 (at node 15)
	maximum = 0.112 (at node 9)
Accepted packet rate average = 0.101708
	minimum = 0.088 (at node 7)
	maximum = 0.110333 (at node 13)
Injected flit rate average = 0.101813
	minimum = 0.0916667 (at node 15)
	maximum = 0.112 (at node 9)
Accepted flit rate average= 0.101708
	minimum = 0.088 (at node 7)
	maximum = 0.110333 (at node 13)
Injected packet length average = 1
Accepted packet length average = 1
Total in-flight flits = 32 (32 measured)
latency change    = 0.00317979
throughput change = 0.0054281
Draining all recorded packets ...
Draining remaining packets ...
Time taken is 6058 cycles
Class 0:
Packet latency average = 19.8654
	minimum = 7
	maximum = 44
Network latency average = 19.8641
	minimum = 7
	maximum = 44
Slowest packet = 136819
Flit latency average = 19.8641
	minimum = 7
	maximum = 44
Slowest flit = 136819
Fragmentation average = 0
	minimum = 0
	maximum = 0
Injected packet rate average = 0.101375
	minimum = 0.086 (at node 6)
	maximum = 0.123 (at node 3)
Accepted packet rate average = 0.0998125
	minimum = 0.084 (at node 7)
	maximum = 0.121 (at node 14)
Injected flit rate average = 0.101375
	minimum = 0.086 (at node 6)
	maximum = 0.123 (at node 3)
Accepted flit rate average= 0.0998125
	minimum = 0.084 (at node 7)
	maximum = 0.121 (at node 14)
Injected packet length average = 1
Accepted packet length average = 1
Total in-flight flits = 25 (0 measured)
latency change    = 1
throughput change = 1
Class 0:
Packet latency average = 20.1179
	minimum = 7
	maximum = 49
Network latency average = 20.1167
	minimum = 7
	maximum = 49
Slowest packet = 138449
Flit latency average = 20.1167
	minimum = 7
	maximum = 49
Slowest flit = 138449
Fragmentation average = 0
	minimum = 0
	maximum = 0
Injected packet rate average = 0.100531
	minimum = 0.089 (at node 6)
	maximum = 0.1135 (at node 13)
Accepted packet rate average = 0.0999063
	minimum = 0.0875 (at node 15)
	maximum = 0.1135 (at node 11)
Injected flit rate average = 0.100531
	minimum = 0.089 (at node 6)
	maximum = 0.1135 (at node 13)
Accepted flit rate average= 0.0999063
	minimum = 0.0875 (at node 15)
	maximum = 0.1135 (at node 11)
Injected packet length average = 1
Accepted packet length average = 1
Total in-flight flits = 20 (0 measured)
latency change    = 0.0125535
throughput change = 0.00093838
Class 0:
Packet latency average = 19.4531
	minimum = 7
	maximum = 45
Network latency average = 19.4519
	minimum = 7
	maximum = 45
Slowest packet = 140076
Flit latency average = 19.4519
	minimum = 7
	maximum = 45
Slowest flit = 140076
Fragmentation average = 0
	minimum = 0
	maximum = 0
Injected packet rate average = 0.100062
	minimum = 0.08 (at node 0)
	maximum = 0.111 (at node 12)
Accepted packet rate average = 0.0993125
	minimum = 0.085 (at node 7)
	maximum = 0.117 (at node 1)
Injected flit rate average = 0.100062
	minimum = 0.08 (at node 0)
	maximum = 0.111 (at node 12)
Accepted flit rate average= 0.0993125
	minimum = 0.085 (at node 7)
	maximum = 0.117 (at node 1)
Injected packet length average = 1
Accepted packet length average = 1
Total in-flight flits = 32 (0 measured)
latency change    = 0.0341749
throughput change = 0.0059786
Warmed up ...Time used is 3000 cycles
Class 0:
Packet latency average = 19.8076
	minimum = 7
	maximum = 44
Network latency average = 19.8076
	minimum = 7
	maximum = 44
Slowest packet = 141449
Flit latency average = 19.8218
	minimum = 7
	maximum = 44
Slowest flit = 141449
Fragmentation average = 0
	minimum = 0
	maximum = 0
Injected packet rate average = 0.09775
	minimum = 0.082 (at node 7)
	maximum = 0.11 (at node 1)
Accepted packet rate average = 0.0975
	minimum = 0.081 (at node 3)
	maximum = 0.12 (at node 11)
Injected flit rate average = 0.09775
	minimum = 0.082 (at node 7)
	maximum = 0.11 (at node 1)
Accepted flit rate average= 0.0975
	minimum = 0.081 (at node 3)
	maximum = 0.12 (at node 11)
Injected packet length average = 1
Accepted packet length average = 1
Total in-flight flits = 36 (36 measured)
latency change    = 0.017896
throughput change = 0.0185897
Class 0:
Packet latency average = 19.8984
	minimum = 7
	maximum = 45
Network latency average = 19.8984
	minimum = 7
	maximum = 45
Slowest packet = 143326
Flit latency average = 19.9044
	minimum = 7
	maximum = 45
Slowest flit = 143326
Fragmentation average = 0
	minimum = 0
	maximum = 0
Injected packet rate average = 0.0997813
	minimum = 0.0885 (at node 8)
	maximum = 0.109 (at node 14)
Accepted packet rate average = 0.0997187
	minimum = 0.0865 (at node 15)
	maximum = 0.119 (at node 11)
Injected flit rate average = 0.0997813
	minimum = 0.0885 (at node 8)
	maximum = 0.109 (at node 14)
Accepted flit rate average= 0.0997187
	minimum = 0.0865 (at node 15)
	maximum = 0.119 (at node 11)
Injected packet length average = 1
Accepted packet length average = 1
Total in-flight flits = 34 (34 measured)
latency change    = 0.00456288
throughput change = 0.0222501
Class 0:
Packet latency average = 19.8153
	minimum = 7
	maximum = 45
Network latency average = 19.8153
	minimum = 7
	maximum = 45
Slowest packet = 143326
Flit latency average = 19.8198
	minimum = 7
	maximum = 45
Slowest flit = 143326
Fragmentation average = 0
	minimum = 0
	maximum = 0
Injected packet rate average = 0.100062
	minimum = 0.088 (at node 8)
	maximum = 0.109333 (at node 13)
Accepted packet rate average = 0.100021
	minimum = 0.0896667 (at node 15)
	maximum = 0.114333 (at node 7)
Injected flit rate average = 0.100062
	minimum = 0.088 (at node 8)
	maximum = 0.109333 (at node 13)
Accepted flit rate average= 0.100021
	minimum = 0.0896667 (at node 15)
	maximum = 0.114333 (at node 7)
Injected packet length average = 1
Accepted packet length average = 1
Total in-flight flits = 34 (34 measured)
latency change    = 0.00419476
throughput change = 0.0030202
Draining all recorded packets ...
Draining remaining packets ...
Time taken is 6065 cycles
Class 0:
Packet latency average = 19.9608
	minimum = 7
	maximum = 43
Network latency average = 19.9608
	minimum = 7
	maximum = 43
Slowest packet = 147642
Flit latency average = 19.9608
	minimum = 7
	maximum = 43
Slowest flit = 147642
Fragmentation average = 0
	minimum = 0
	maximum = 0
Injected packet rate average = 0.0961875
	minimum = 0.079 (at node 0)
	maximum = 0.11 (at node 4)
[...]
	minimum = 0.091 (at node 15)
	maximum = 0.1045 (at node 3)
Accepted packet rate average = 0.0986563
	minimum = 0.092 (at node 0)
	maximum = 0.113 (at node 2)
Injected flit rate average = 0.0988125
	minimum = 0.091 (at node 15)
	maximum = 0.1045 (at node 3)
Accepted flit rate average= 0.0986563
	minimum = 0.092 (at node 0)
	maximum = 0.113 (at node 2)
Injected packet length average = 1
Accepted packet length average = 1
Total in-flight flits = 31 (31 measured)
latency change    = 0.00457241
throughput change = 0.0110865
Class 0:
Packet latency average = 19.7042
	minimum = 7
	maximum = 45
Network latency average = 19.7034
	minimum = 7
	maximum = 45
Slowest packet = 947497
Flit latency average = 19.7147
	minimum = 7
	maximum = 45
Slowest flit = 947497
Fragmentation average = 0
	minimum = 0
	maximum = 0
Injected packet rate average = 0.0989583
	minimum = 0.088 (at node 0)
	maximum = 0.106667 (at node 3)
Accepted packet rate average = 0.0987917
	minimum = 0.0906667 (at node 3)
	maximum = 0.107667 (at node 5)
Injected flit rate average = 0.0989583
	minimum = 0.088 (at node 0)
	maximum = 0.106667 (at node 3)
Accepted flit rate average= 0.0987917
	minimum = 0.0906667 (at node 3)
	maximum = 0.107667 (at node 5)
Injected packet length average = 1
Accepted packet length average = 1
Total in-flight flits = 34 (34 measured)
latency change    = 0.00382785
throughput change = 0.00137073
Draining all recorded packets ...
Draining remaining packets ...
Time taken is 6064 cycles
Class 0:
Packet latency average = 19.7049
	minimum = 7
	maximum = 41
Network latency average = 19.703
	minimum = 7
	maximum = 41
Slowest packet = 951117
Flit latency average = 19.703
	minimum = 7
	maximum = 41
Slowest flit = 951117
Fragmentation average = 0
	minimum = 0
	maximum = 0
Injected packet rate average = 0.10075
	minimum = 0.081 (at node 2)
	maximum = 0.116 (at node 0)
Accepted packet rate average = 0.0985
	minimum = 0.073 (at node 2)
	maximum = 0.12 (at node 14)
Injected flit rate average = 0.10075
	minimum = 0.081 (at node 2)
	maximum = 0.116 (at node 0)
Accepted flit rate average= 0.0985
	minimum = 0.073 (at node 2)
	maximum = 0.12 (at node 14)
Injected packet length average = 1
Accepted packet length average = 1
Total in-flight flits = 36 (0 measured)
latency change    = 1
throughput change = 1
Class 0:
Packet latency average = 19.6533
	minimum = 7
	maximum = 45
Network latency average = 19.6517
	minimum = 7
	maximum = 45
Slowest packet = 952675
Flit latency average = 19.6517
	minimum = 7
	maximum = 45
Slowest flit = 952675
Fragmentation average = 0
	minimum = 0
	maximum = 0
Injected packet rate average = 0.100469
	minimum = 0.088 (at node 2)
	maximum = 0.1155 (at node 11)
Accepted packet rate average = 0.0991563
	minimum = 0.079 (at node 2)
	maximum = 0.1085 (at node 14)
Injected flit rate average = 0.100469
	minimum = 0.088 (at node 2)
	maximum = 0.1155 (at node 11)
Accepted flit rate average= 0.0991563
	minimum = 0.079 (at node 2)
	maximum = 0.1085 (at node 14)
Injected packet length average = 1
Accepted packet length average = 1
Total in-flight flits = 42 (0 measured)
latency change    = 0.00262675
throughput change = 0.00661834
Class 0:
Packet latency average = 19.9956
	minimum = 7
	maximum = 44
Network latency average = 19.9956
	minimum = 7
	maximum = 44
Slowest packet = 953839
Flit latency average = 19.9956
	minimum = 7
	maximum = 44
Slowest flit = 953839
Fragmentation average = 0
	minimum = 0
	maximum = 0
Injected packet rate average = 0.0989375
	minimum = 0.082 (at node 6)
	maximum = 0.115 (at node 11)
Accepted packet rate average = 0.0999375
	minimum = 0.087 (at node 14)
	maximum = 0.116 (at node 1)
Injected flit rate average = 0.0989375
	minimum = 0.082 (at node 6)
	maximum = 0.115 (at node 11)
Accepted flit rate average= 0.0999375
	minimum = 0.087 (at node 14)
	maximum = 0.116 (at node 1)
Injected packet length average = 1
Accepted packet length average = 1
Total in-flight flits = 26 (0 measured)
latency change    = 0.0171186
throughput change = 0.00781739
Warmed up ...Time used is 3000 cycles
Class 0:
Packet latency average = 19.7163
	minimum = 7
	maximum = 46
Network latency average = 19.7157
	minimum = 7
	maximum = 46
Slowest packet = 954820
Flit latency average = 19.7409
	minimum = 7
	maximum = 46
Slowest flit = 954820
Fragmentation average = 0
	minimum = 0
	maximum = 0
Injected packet rate average = 0.103188
	minimum = 0.083 (at node 9)
	maximum = 0.129 (at node 11)
Accepted packet rate average = 0.10275
	minimum = 0.089 (at node 6)
	maximum = 0.124 (at node 12)
Injected flit rate average = 0.103188
	minimum = 0.083 (at node 9)
	maximum = 0.129 (at node 11)
Accepted flit rate average= 0.10275
	minimum = 0.089 (at node 6)
	maximum = 0.124 (at node 12)
Injected packet length average = 1
Accepted packet length average = 1
Total in-flight flits = 33 (33 measured)
latency change    = 0.0141662
throughput change = 0.0273723
Class 0:
Packet latency average = 19.7341
	minimum = 7
	maximum = 46
Network latency average = 19.7338
	minimum = 7
	maximum = 46
Slowest packet = 954820
Flit latency average = 19.7469
	minimum = 7
	maximum = 46
Slowest flit = 954820
Fragmentation average = 0
	minimum = 0
	maximum = 0
Injected packet rate average = 0.0976875
	minimum = 0.087 (at node 1)
	maximum = 0.113 (at node 11)
Accepted packet rate average = 0.0975312
	minimum = 0.089 (at node 9)
	maximum = 0.1175 (at node 12)
Injected flit rate average = 0.0976875
	minimum = 0.087 (at node 1)
	maximum = 0.113 (at node 11)
Accepted flit rate average= 0.0975312
	minimum = 0.089 (at node 9)
	maximum = 0.1175 (at node 12)
Injected packet length average = 1
Accepted packet length average = 1
Total in-flight flits = 31 (31 measured)
latency change    = 0.000900513
throughput change = 0.0535085
Class 0:
Packet latency average = 19.7442
	minimum = 7
	maximum = 46
Network latency average = 19.7438
	minimum = 7
	maximum = 46
Slowest packet = 954820
Flit latency average = 19.7524
	minimum = 7
	maximum = 46
Slowest flit = 954820
Fragmentation average = 0
	minimum = 0
	maximum = 0
Injected packet rate average = 0.0984167
	minimum = 0.0883333 (at node 2)
	maximum = 0.111 (at node 11)
Accepted packet rate average = 0.0982917
	minimum = 0.091 (at node 14)
	maximum = 0.111333 (at node 3)
Injected flit rate average = 0.0984167
	minimum = 0.0883333 (at node 2)
	maximum = 0.111 (at node 11)
Accepted flit rate average= 0.0982917
	minimum = 0.091 (at node 14)
	maximum = 0.111333 (at node 3)
Injected packet length average = 1
Accepted packet length average = 1
Total in-flight flits = 32 (32 measured)
latency change    = 0.000514494
throughput change = 0.00773633
Class 0:
Packet latency average = 19.6763
	minimum = 7
	maximum = 46
Network latency average = 19.676
	minimum = 7
	maximum = 46
Slowest packet = 954820
Flit latency average = 19.6827
	minimum = 7
	maximum = 46
Slowest flit = 954820
Fragmentation average = 0
	minimum = 0
	maximum = 0
Injected packet rate average = 0.0987813
	minimum = 0.0885 (at node 2)
	maximum = 0.10925 (at node 10)
Accepted packet rate average = 0.0986875
	minimum = 0.0925 (at node 15)
	maximum = 0.109 (at node 0)
Injected flit rate average = 0.0987813
	minimum = 0.0885 (at node 2)
	maximum = 0.10925 (at node 10)
Accepted flit rate average= 0.0986875
	minimum = 0.0925 (at node 15)
	maximum = 0.109 (at node 0)
Injected packet length average = 1
Accepted packet length average = 1
Total in-flight flits = 32 (32 measured)
latency change    = 0.00345257
throughput change = 0.00401098
Class 0:
Packet latency average = 19.7244
	minimum = 7
	maximum = 48
Network latency average = 19.7236
	minimum = 7
	maximum = 48
Slowest packet = 961130
Flit latency average = 19.7288
	minimum = 7
	maximum = 48
Slowest flit = 961130
Fragmentation average = 0
	minimum = 0
	maximum = 0
Injected packet rate average = 0.09955
	minimum = 0.091 (at node 2)
	maximum = 0.1086 (at node 11)
Accepted packet rate average = 0.0996
	minimum = 0.092 (at node 13)
	maximum = 0.1064 (at node 3)
Injected flit rate average = 0.09955
	minimum = 0.091 (at node 2)
	maximum = 0.1086 (at node 11)
Accepted flit rate average= 0.0996
	minimum = 0.092 (at node 13)
	maximum = 0.1064 (at node 3)
Injected packet length average = 1
Accepted packet length average = 1
Total in-flight flits = 22 (22 measured)
latency change    = 0.00243684
throughput change = 0.00916165
Draining all recorded packets ...
Draining remaining packets ...
Time taken is 8057 cycles
Class 0:
Packet latency average = 19.7021
	minimum = 7
	maximum = 39
Network latency average = 19.7008
	minimum = 7
	maximum = 39
Slowest packet = 962600
Flit latency average = 19.7008
	minimum = 7
	maximum = 39
Slowest flit = 962600
Fragmentation average = 0
	minimum = 0
	maximum = 0
Injected packet rate average = 0.101187
	minimum = 0.089 (at node 15)
	maximum = 0.122 (at node 8)
Accepted packet rate average = 0.0988125
	minimum = 0.091 (at node 9)
	maximum = 0.108 (at node 12)
Injected flit rate average = 0.101187
	minimum = 0.089 (at node 15)
	maximum = 0.122 (at node 8)
Accepted flit rate average= 0.0988125
	minimum = 0.091 (at node 9)
	maximum = 0.108 (at node 12)
Injected packet length average = 1
Accepted packet length average = 1
Total in-flight flits = 38 (0 measured)
latency change    = 1
throughput change = 1
Class 0:
Packet latency average = 19.7666
	minimum = 7
	maximum = 41
Network latency average = 19.7659
	minimum = 7
	maximum = 41
Slowest packet = 964465
Flit latency average = 19.7659
	minimum = 7
	maximum = 41
Slowest flit = 964465
Fragmentation average = 0
	minimum = 0
	maximum = 0
Injected packet rate average = 0.100312
	minimum = 0.0885 (at node 5)
	maximum = 0.109 (at node 8)
Accepted packet rate average = 0.0994687
	minimum = 0.088 (at node 2)
	maximum = 0.1075 (at node 10)
Injected flit rate average = 0.100312
	minimum = 0.0885 (at node 5)
	maximum = 0.109 (at node 8)
Accepted flit rate average= 0.0994687
	minimum = 0.088 (at node 2)
	maximum = 0.1075 (at node 10)
Injected packet length average = 1
Accepted packet length average = 1
Total in-flight flits = 27 (0 measured)
latency change    = 0.00326233
throughput change = 0.00659755
Class 0:
Packet latency average = 19.7069
	minimum = 7
	maximum = 42
Network latency average = 19.7069
	minimum = 7
	maximum = 42
Slowest packet = 967135
Flit latency average = 19.7069
	minimum = 7
	maximum = 42
Slowest flit = 967135
Fragmentation average = 0
	minimum = 0
	maximum = 0
Injected packet rate average = 0.0985
	minimum = 0.084 (at node 15)
	maximum = 0.114 (at node 0)
Accepted packet rate average = 0.097875
	minimum = 0.09 (at node 4)
	maximum = 0.111 (at node 14)
Injected flit rate average = 0.0985
	minimum = 0.084 (at node 15)
	maximum = 0.114 (at node 0)
Accepted flit rate average= 0.097875
	minimum = 0.09 (at node 4)
	maximum = 0.111 (at node 14)
Injected packet length average = 1
Accepted packet length average = 1
Total in-flight flits = 37 (0 measured)
latency change    = 0.00302817
throughput change = 0.0162835
Warmed up ...Time used is 3000 cycles
Class 0:
Packet latency average = 19.0209
	minimum = 7
	maximum = 42
Network latency average = 19.0195
	minimum = 7
	maximum = 42
Slowest packet = 967547
Flit latency average = 19.0802
	minimum = 7
	maximum = 42
Slowest flit = 967547
Fragmentation average = 0
	minimum = 0
	maximum = 0
Injected packet rate average = 0.09475
	minimum = 0.081 (at node 15)
	maximum = 0.119 (at node 9)
Accepted packet rate average = 0.0950625
	minimum = 0.075 (at node 2)
	maximum = 0.116 (at node 0)
Injected flit rate average = 0.09475
	minimum = 0.081 (at node 15)
	maximum = 0.119 (at node 9)
Accepted flit rate average= 0.0950625
	minimum = 0.075 (at node 2)
	maximum = 0.116 (at node 0)
Injected packet length average = 1
Accepted packet length average = 1
Total in-flight flits = 32 (32 measured)
latency change    = 0.036066
throughput change = 0.0295858
Class 0:
Packet latency average = 19.4145
	minimum = 7
	maximum = 50
Network latency average = 19.4138
	minimum = 7
	maximum = 50
Slowest packet = 969883
Flit latency average = 19.4391
	minimum = 7
	maximum = 50
Slowest flit = 969883
Fragmentation average = 0
	minimum = 0
	maximum = 0
Injected packet rate average = 0.0959062
	minimum = 0.082 (at node 1)
	maximum = 0.1135 (at node 2)
Accepted packet rate average = 0.0961562
	minimum = 0.0795 (at node 2)
	maximum = 0.1075 (at node 13)
Injected flit rate average = 0.0959062
	minimum = 0.082 (at node 1)
	maximum = 0.1135 (at node 2)
Accepted flit rate average= 0.0961562
	minimum = 0.0795 (at node 2)
	maximum = 0.1075 (at node 13)
Injected packet length average = 1
Accepted packet length average = 1
Total in-flight flits = 29 (29 measured)
latency change    = 0.0202727
throughput change = 0.0113747
Class 0:
Packet latency average = 19.4869
	minimum = 7
	maximum = 50
Network latency average = 19.4865
	minimum = 7
	maximum = 50
Slowest packet = 969883
Flit latency average = 19.5025
	minimum = 7
	maximum = 50
Slowest flit = 969883
Fragmentation average = 0
	minimum = 0
	maximum = 0
Injected packet rate average = 0.0976458
	minimum = 0.089 (at node 1)
	maximum = 0.11 (at node 2)
Accepted packet rate average = 0.0976875
	minimum = 0.085 (at node 2)
	maximum = 0.106333 (at node 11)
Injected flit rate average = 0.0976458
	minimum = 0.089 (at node 1)
	maximum = 0.11 (at node 2)
Accepted flit rate average= 0.0976875
	minimum = 0.085 (at node 2)
	maximum = 0.106333 (at node 11)
Injected packet length average = 1
Accepted packet length average = 1
Total in-flight flits = 35 (35 measured)
latency change    = 0.00371602
throughput change = 0.015675
Draining all recorded packets ...
Draining remaining packets ...
Time taken is 6068 cycles
Class 0:
Packet latency average = 19.7818
	minimum = 7
	maximum = 47
Network latency average = 19.7767
	minimum = 7
	maximum = 47
Slowest packet = 972761
Flit latency average = 19.7767
	minimum = 7
	maximum = 47
Slowest flit = 972761
Fragmentation average = 0
	minimum = 0
	maximum = 0
Injected packet rate average = 0.101813
	minimum = 0.088 (at node 4)
	maximum = 0.121 (at node 3)
Accepted packet rate average = 0.099375
	minimum = 0.082 (at node 1)
	maximum = 0.116 (at node 14)
Injected flit rate average = 0.101813
	minimum = 0.088 (at node 4)
	maximum = 0.121 (at node 3)
Accepted flit rate average= 0.099375
	minimum = 0.082 (at node 1)
	maximum = 0.116 (at node 14)
Injected packet length average = 1
Accepted packet length average = 1
Total in-flight flits = 39 (0 measured)
latency change    = 1
throughput change = 1
Class 0:
Packet latency average = 19.9186
	minimum = 7
	maximum = 47
Network latency average = 19.9132
	minimum = 7
	maximum = 47
Slowest packet = 972761
Flit latency average = 19.9132
	minimum = 7
	maximum = 47
Slowest flit = 972761
Fragmentation average = 0
	minimum = 0
	maximum = 0
Injected packet rate average = 0.100187
	minimum = 0.088 (at node 13)
	maximum = 0.1125 (at node 3)
Accepted packet rate average = 0.0990625
	minimum = 0.085 (at node 2)
	maximum = 0.1085 (at node 10)
Injected flit rate average = 0.100187
	minimum = 0.088 (at node 13)
	maximum = 0.1125 (at node 3)
Accepted flit rate average= 0.0990625
	minimum = 0.085 (at node 2)
	maximum = 0.1085 (at node 10)
Injected packet length average = 1
Accepted packet length average = 1
Total in-flight flits = 36 (0 measured)
latency change    = 0.00687051
throughput change = 0.00315457
Class 0:
Packet latency average = 19.9931
	minimum = 7
	maximum = 43
Network latency average = 19.9925
	minimum = 7
	maximum = 43
Slowest packet = 976641
Flit latency average = 19.9925
	minimum = 7
	maximum = 43
Slowest flit = 976641
Fragmentation average = 0
	minimum = 0
	maximum = 0
Injected packet rate average = 0.099375
	minimum = 0.086 (at node 13)
	maximum = 0.109 (at node 0)
Accepted packet rate average = 0.099375
	minimum = 0.084 (at node 0)
	maximum = 0.113 (at node 9)
Injected flit rate average = 0.099375
	minimum = 0.086 (at node 13)
	maximum = 0.109 (at node 0)
Accepted flit rate average= 0.099375
	minimum = 0.084 (at node 0)
	maximum = 0.113 (at node 9)
Injected packet length average = 1
Accepted packet length average = 1
Total in-flight flits = 36 (0 measured)
latency change    = 0.00372478
throughput change = 0.00314465
Warmed up ...Time used is 3000 cycles
Class 0:
Packet latency average = 19.2761
	minimum = 7
	maximum = 38
Network latency average = 19.2761
	minimum = 7
	maximum = 38
Slowest packet = 977259
Flit latency average = 19.3438
	minimum = 7
	maximum = 38
Slowest flit = 977259
Fragmentation average = 0
	minimum = 0
	maximum = 0
Injected packet rate average = 0.0980625
	minimum = 0.074 (at node 9)
	maximum = 0.122 (at node 11)
Accepted packet rate average = 0.098
	minimum = 0.072 (at node 0)
	maximum = 0.118 (at node 2)
Injected flit rate average = 0.0980625
	minimum = 0.074 (at node 9)
	maximum = 0.122 (at node 11)
Accepted flit rate average= 0.098
	minimum = 0.072 (at node 0)
	maximum = 0.118 (at node 2)
Injected packet length average = 1
Accepted packet length average = 1
Total in-flight flits = 37 (37 measured)
latency change    = 0.0371949
throughput change = 0.0140306
Class 0:
Packet latency average = 19.7288
	minimum = 7
	maximum = 54
Network latency average = 19.7288
	minimum = 7
	maximum = 54
Slowest packet = 978806
Flit latency average = 19.7578
	minimum = 7
	maximum = 54
Slowest flit = 978806
Fragmentation average = 0
	minimum = 0
	maximum = 0
Injected packet rate average = 0.0968438
	minimum = 0.085 (at node 6)
	maximum = 0.1085 (at node 4)
Accepted packet rate average = 0.0967812
	minimum = 0.082 (at node 0)
	maximum = 0.1075 (at node 8)
Injected flit rate average = 0.0968438
	minimum = 0.085 (at node 6)
	maximum = 0.1085 (at node 4)
Accepted flit rate average= 0.0967812
	minimum = 0.082 (at node 0)
	maximum = 0.1075 (at node 8)
Injected packet length average = 1
Accepted packet length average = 1
Total in-flight flits = 38 (38 measured)
latency change    = 0.022948
throughput change = 0.0125928
Class 0:
Packet latency average = 19.6576
	minimum = 7
	maximum = 54
Network latency average = 19.6576
	minimum = 7
	maximum = 54
Slowest packet = 978806
Flit latency average = 19.6773
	minimum = 7
	maximum = 54
Slowest flit = 978806
Fragmentation average = 0
	minimum = 0
	maximum = 0
Injected packet rate average = 0.0976042
	minimum = 0.0913333 (at node 10)
	maximum = 0.104 (at node 11)
Accepted packet rate average = 0.0976875
	minimum = 0.0866667 (at node 0)
	maximum = 0.107 (at node 2)
Injected flit rate average = 0.0976042
	minimum = 0.0913333 (at node 10)
	maximum = 0.104 (at node 11)
Accepted flit rate average= 0.0976875
	minimum = 0.0866667 (at node 0)
	maximum = 0.107 (at node 2)
Injected packet length average = 1
Accepted packet length average = 1
Total in-flight flits = 32 (32 measured)
latency change    = 0.00362233
throughput change = 0.00927703
Draining all recorded packets ...
Draining remaining packets ...
Time taken is 6056 cycles
====== Overall Traffic Statistics ======
====== Traffic class 0 ======
Packet latency average = 19.8137 (100 samples)
	minimum = 7 (100 samples)
	maximum = 48.51 (100 samples)
Network latency average = 19.8128 (100 samples)
	minimum = 7 (100 samples)
	maximum = 48.51 (100 samples)
Flit latency average = 19.8262 (100 samples)
	minimum = 7 (100 samples)
	maximum = 48.52 (100 samples)
Fragmentation average = 0 (100 samples)
	minimum = 0 (100 samples)
	maximum = 0 (100 samples)
Injected packet rate average = 0.100147 (100 samples)
	minimum = 0.0904058 (100 samples)
	maximum = 0.109768 (100 samples)
Accepted packet rate average = 0.100116 (100 samples)
	minimum = 0.0904558 (100 samples)
	maximum = 0.109996 (100 samples)
Injected flit rate average = 0.100147 (100 samples)
	minimum = 0.0904058 (100 samples)
	maximum = 0.109768 (100 samples)
Accepted flit rate average = 0.100116 (100 samples)
	minimum = 0.0904558 (100 samples)
	maximum = 0.109996 (100 samples)
Injected packet size average = 1 (100 samples)
Accepted packet size average = 1 (100 samples)
Hops average = 3.49996 (100 samples)
Total run time 11.1374
