BEGIN Configuration File: /tmp/bs_1138183_500055.cfg
topology = mesh;
k = 4;
n = 2;
routing_function = min_adapt;
num_vcs = 4;
vc_buf_size = 4;
wait_for_tail_credit = 1;
vc_allocator = islip;
sw_allocator = islip;
alloc_iters = 1;
credit_delay = 2;
routing_delay = 1;
vc_alloc_delay = 1;
sw_alloc_delay = 1;
input_speedup = 2;
output_speedup = 1;
internal_speedup = 1.0;
traffic = uniform;
packet_size = 1;
sim_type = latency;
injection_rate = 0.01;
warmup_periods = 3;
sample_period = 1000;
sim_count = 100;
seed = 3;

END Configuration File: /tmp/bs_1138183_500055.cfg
Class 0:
Packet latency average = 19.25
	minimum = 7
	maximum = 41
Network latency average = 19.25
	minimum = 7
	maximum = 41
Slowest packet = 55
Flit latency average = 19.25
	minimum = 7
	maximum = 41
Slowest flit = 55
Fragmentation average = 0
	minimum = 0
	maximum = 0
Injected packet rate average = 0.0100625
	minimum = 0.006 (at node 10)
	maximum = 0.017 (at node 1)
Accepted packet rate average = 0.00975
	minimum = 0.006 (at node 4)
	maximum = 0.014 (at node 6)
Injected flit rate average = 0.0100625
	minimum = 0.006 (at node 10)
	maximum = 0.017 (at node 1)
Accepted flit rate average= 0.00975
	minimum = 0.006 (at node 4)
	maximum = 0.014 (at node 6)
Injected packet length average = 1
Accepted packet length average = 1
Total in-flight flits = 5 (0 measured)
latency change    = 1
throughput change = 1
Class 0:
Packet latency average = 18.786
	minimum = 7
	maximum = 41
Network latency average = 18.786
	minimum = 7
	maximum = 41
Slowest packet = 55
Flit latency average = 18.786
	minimum = 7
	maximum = 41
Slowest flit = 55
Fragmentation average = 0
	minimum = 0
	maximum = 0
Injected packet rate average = 0.0089375
	minimum = 0.006 (at node 10)
	maximum = 0.014 (at node 11)
Accepted packet rate average = 0.00890625
	minimum = 0.005 (at node 2)
	maximum = 0.015 (at node 6)
Injected flit rate average = 0.0089375
	minimum = 0.006 (at node 10)
	maximum = 0.014 (at node 11)
Accepted flit rate average= 0.00890625
	minimum = 0.005 (at node 2)
	maximum = 0.015 (at node 6)
Injected packet length average = 1
Accepted packet length average = 1
Total in-flight flits = 1 (0 measured)
latency change    = 0.0247012
throughput change = 0.0947368
Class 0:
Packet latency average = 20.2746
	minimum = 7
	maximum = 37
Network latency average = 20.2746
	minimum = 7
	maximum = 37
Slowest packet = 321
Flit latency average = 20.2746
	minimum = 7
	maximum = 37
Slowest flit = 321
Fragmentation average = 0
	minimum = 0
	maximum = 0
Injected packet rate average = 0.009125
	minimum = 0.003 (at node 11)
	maximum = 0.016 (at node 12)
Accepted packet rate average = 0.008875
	minimum = 0.004 (at node 3)
	maximum = 0.014 (at node 2)
Injected flit rate average = 0.009125
	minimum = 0.003 (at node 11)
	maximum = 0.016 (at node 12)
Accepted flit rate average= 0.008875
	minimum = 0.004 (at node 3)
	maximum = 0.014 (at node 2)
Injected packet length average = 1
Accepted packet length average = 1
Total in-flight flits = 5 (0 measured)
latency change    = 0.0734258
throughput change = 0.00352113
Warmed up ...Time used is 3000 cycles
Class 0:
Packet latency average = 18.6974
	minimum = 7
	maximum = 38
Network latency average = 18.6974
	minimum = 7
	maximum = 38
Slowest packet = 561
Flit latency average = 18.7389
	minimum = 7
	maximum = 38
Slowest flit = 561
Fragmentation average = 0
	minimum = 0
	maximum = 0
Injected packet rate average = 0.0098125
	minimum = 0.006 (at node 2)
	maximum = 0.014 (at node 8)
Accepted packet rate average = 0.0098125
	minimum = 0.005 (at node 4)
	maximum = 0.015 (at node 0)
Injected flit rate average = 0.0098125
	minimum = 0.006 (at node 2)
	maximum = 0.014 (at node 8)
Accepted flit rate average= 0.0098125
	minimum = 0.005 (at node 4)
	maximum = 0.015 (at node 0)
Injected packet length average = 1
Accepted packet length average = 1
Total in-flight flits = 5 (5 measured)
latency change    = 0.0843584
throughput change = 0.0955414
Class 0:
Packet latency average = 19.823
	minimum = 7
	maximum = 38
Network latency average = 19.823
	minimum = 7
	maximum = 38
Slowest packet = 561
Flit latency average = 19.8257
	minimum = 7
	maximum = 38
Slowest flit = 561
Fragmentation average = 0
	minimum = 0
	maximum = 0
Injected packet rate average = 0.0101563
	minimum = 0.008 (at node 2)
	maximum = 0.0125 (at node 1)
Accepted packet rate average = 0.0102188
	minimum = 0.0065 (at node 4)
	maximum = 0.0135 (at node 0)
Injected flit rate average = 0.0101563
	minimum = 0.008 (at node 2)
	maximum = 0.0125 (at node 1)
Accepted flit rate average= 0.0102188
	minimum = 0.0065 (at node 4)
	maximum = 0.0135 (at node 0)
Injected packet length average = 1
Accepted packet length average = 1
Total in-flight flits = 3 (3 measured)
latency change    = 0.0567832
throughput change = 0.0397554
Class 0:
Packet latency average = 19.7385
	minimum = 7
	maximum = 40
Network latency average = 19.7385
	minimum = 7
	maximum = 40
Slowest packet = 899
Flit latency average = 19.7411
	minimum = 7
	maximum = 40
Slowest flit = 899
Fragmentation average = 0
	minimum = 0
	maximum = 0
Injected packet rate average = 0.0105833
	minimum = 0.00666667 (at node 2)
	maximum = 0.013 (at node 10)
Accepted packet rate average = 0.0105417
	minimum = 0.00833333 (at node 6)
	maximum = 0.013 (at node 11)
Injected flit rate average = 0.0105833
	minimum = 0.00666667 (at node 2)
	maximum = 0.013 (at node 10)
Accepted flit rate average= 0.0105417
	minimum = 0.00833333 (at node 6)
	maximum = 0.013 (at node 11)
Injected packet length average = 1
Accepted packet length average = 1
Total in-flight flits = 7 (7 measured)
latency change    = 0.00427886
throughput change = 0.0306324
Class 0:
Packet latency average = 19.8359
	minimum = 7
	maximum = 40
Network latency average = 19.8359
	minimum = 7
	maximum = 40
Slowest packet = 899
Flit latency average = 19.8371
	minimum = 7
	maximum = 40
Slowest flit = 899
Fragmentation average = 0
	minimum = 0
	maximum = 0
Injected packet rate average = 0.0103281
	minimum = 0.007 (at node 2)
	maximum = 0.0125 (at node 6)
Accepted packet rate average = 0.0103594
	minimum = 0.009 (at node 6)
	maximum = 0.01225 (at node 7)
Injected flit rate average = 0.0103281
	minimum = 0.007 (at node 2)
	maximum = 0.0125 (at node 6)
Accepted flit rate average= 0.0103594
	minimum = 0.009 (at node 6)
	maximum = 0.01225 (at node 7)
Injected packet length average = 1
Accepted packet length average = 1
Total in-flight flits = 3 (3 measured)
latency change    = 0.00490744
throughput change = 0.0175968
Class 0:
Packet latency average = 19.7873
	minimum = 7
	maximum = 41
Network latency average = 19.7873
	minimum = 7
	maximum = 41
Slowest packet = 1181
Flit latency average = 19.7885
	minimum = 7
	maximum = 41
Slowest flit = 1181
Fragmentation average = 0
	minimum = 0
	maximum = 0
Injected packet rate average = 0.010425
	minimum = 0.0078 (at node 4)
	maximum = 0.0122 (at node 0)
Accepted packet rate average = 0.0104625
	minimum = 0.008 (at node 10)
	maximum = 0.012 (at node 7)
Injected flit rate average = 0.010425
	minimum = 0.0078 (at node 4)
	maximum = 0.0122 (at node 0)
Accepted flit rate average= 0.0104625
	minimum = 0.008 (at node 10)
	maximum = 0.012 (at node 7)
Injected packet length average = 1
Accepted packet length average = 1
Total in-flight flits = 2 (2 measured)
latency change    = 0.00245646
throughput change = 0.00985663
Draining all recorded packets ...
Draining remaining packets ...
Time taken is 8008 cycles
Class 0:
Packet latency average = 19.0473
	minimum = 7
	maximum = 47
Network latency average = 19.0473
	minimum = 7
	maximum = 47
Slowest packet = 1305
Flit latency average = 19.0473
	minimum = 7
	maximum = 47
Slowest flit = 1305
Fragmentation average = 0
	minimum = 0
	maximum = 0
Injected packet rate average = 0.0106875
	minimum = 0.004 (at node 14)
	maximum = 0.017 (at node 5)
Accepted packet rate average = 0.0105625
	minimum = 0.003 (at node 1)
	maximum = 0.017 (at node 8)
Injected flit rate average = 0.0106875
	minimum = 0.004 (at node 14)
	maximum = 0.017 (at node 5)
Accepted flit rate average= 0.0105625
	minimum = 0.003 (at node 1)
	maximum = 0.017 (at node 8)
Injected packet length average = 1
Accepted packet length average = 1
Total in-flight flits = 2 (0 measured)
latency change    = 1
throughput change = 1
Class 0:
Packet latency average = 19.1867
	minimum = 7
	maximum = 47
Network latency average = 19.1867
	minimum = 7
	maximum = 47
Slowest packet = 1305
Flit latency average = 19.1867
	minimum = 7
	maximum = 47
Slowest flit = 1305
Fragmentation average = 0
	minimum = 0
	maximum = 0
Injected packet rate average = 0.0105
	minimum = 0.0045 (at node 8)
	maximum = 0.0145 (at node 4)
Accepted packet rate average = 0.010375
	minimum = 0.0055 (at node 1)
	maximum = 0.014 (at node 12)
Injected flit rate average = 0.0105
	minimum = 0.0045 (at node 8)
	maximum = 0.0145 (at node 4)
Accepted flit rate average= 0.010375
	minimum = 0.0055 (at node 1)
	maximum = 0.014 (at node 12)
Injected packet length average = 1
Accepted packet length average = 1
Total in-flight flits = 4 (0 measured)
latency change    = 0.00726594
throughput change = 0.0180723
Class 0:
Packet latency average = 19.3977
	minimum = 7
	maximum = 37
Network latency average = 19.3977
	minimum = 7
	maximum = 37
Slowest packet = 1632
Flit latency average = 19.3977
	minimum = 7
	maximum = 37
Slowest flit = 1632
Fragmentation average = 0
	minimum = 0
	maximum = 0
Injected packet rate average = 0.0108125
	minimum = 0.006 (at node 1)
	maximum = 0.016 (at node 0)
Accepted packet rate average = 0.011
	minimum = 0.007 (at node 2)
	maximum = 0.02 (at node 8)
Injected flit rate average = 0.0108125
	minimum = 0.006 (at node 1)
	maximum = 0.016 (at node 0)
Accepted flit rate average= 0.011
	minimum = 0.007 (at node 2)
	maximum = 0.02 (at node 8)
Injected packet length average = 1
Accepted packet length average = 1
Total in-flight flits = 1 (0 measured)
latency change    = 0.0108765
throughput change = 0.0568182
Warmed up ...Time used is 3000 cycles
Class 0:
Packet latency average = 20.0376
	minimum = 7
	maximum = 46
Network latency average = 20.0376
	minimum = 7
	maximum = 46
Slowest packet = 1821
Flit latency average = 20.1269
	minimum = 7
	maximum = 46
Slowest flit = 1821
Fragmentation average = 0
	minimum = 0
	maximum = 0
Injected packet rate average = 0.0085625
	minimum = 0.002 (at node 15)
	maximum = 0.012 (at node 1)
Accepted packet rate average = 0.008375
	minimum = 0.004 (at node 8)
	maximum = 0.013 (at node 3)
Injected flit rate average = 0.0085625
	minimum = 0.002 (at node 15)
	maximum = 0.012 (at node 1)
Accepted flit rate average= 0.008375
	minimum = 0.004 (at node 8)
	maximum = 0.013 (at node 3)
Injected packet length average = 1
Accepted packet length average = 1
Total in-flight flits = 4 (4 measured)
latency change    = 0.0319333
throughput change = 0.313433
Class 0:
Packet latency average = 20.2736
	minimum = 7
	maximum = 46
Network latency average = 20.2736
	minimum = 7
	maximum = 46
Slowest packet = 1821
Flit latency average = 20.3131
	minimum = 7
	maximum = 46
Slowest flit = 1821
Fragmentation average = 0
	minimum = 0
	maximum = 0
Injected packet rate average = 0.00934375
	minimum = 0.0045 (at node 15)
	maximum = 0.0135 (at node 2)
Accepted packet rate average = 0.00928125
	minimum = 0.0065 (at node 8)
	maximum = 0.0125 (at node 15)
Injected flit rate average = 0.00934375
	minimum = 0.0045 (at node 15)
	maximum = 0.0135 (at node 2)
Accepted flit rate average= 0.00928125
	minimum = 0.0065 (at node 8)
	maximum = 0.0125 (at node 15)
Injected packet length average = 1
Accepted packet length average = 1
Total in-flight flits = 3 (3 measured)
latency change    = 0.0116434
throughput change = 0.0976431
Class 0:
Packet latency average = 20.2677
	minimum = 7
	maximum = 54
Network latency average = 20.2677
	minimum = 7
	maximum = 54
Slowest packet = 2079
Flit latency average = 20.2927
	minimum = 7
	maximum = 54
Slowest flit = 2079
Fragmentation average = 0
	minimum = 0
	maximum = 0
Injected packet rate average = 0.00983333
	minimum = 0.00633333 (at node 15)
	maximum = 0.014 (at node 2)
Accepted packet rate average = 0.00975
	minimum = 0.00733333 (at node 11)
	maximum = 0.0133333 (at node 15)
Injected flit rate average = 0.00983333
	minimum = 0.00633333 (at node 15)
	maximum = 0.014 (at node 2)
Accepted flit rate average= 0.00975
	minimum = 0.00733333 (at node 11)
	maximum = 0.0133333 (at node 15)
Injected packet length average = 1
Accepted packet length average = 1
Total in-flight flits = 5 (5 measured)
latency change    = 0.000295184
throughput change = 0.0480769
Class 0:
Packet latency average = 20.0047
	minimum = 7
	maximum = 54
Network latency average = 20.0047
	minimum = 7
	maximum = 54
Slowest packet = 2079
Flit latency average = 20.0237
	minimum = 7
	maximum = 54
Slowest flit = 2079
Fragmentation average = 0
	minimum = 0
	maximum = 0
Injected packet rate average = 0.00996875
	minimum = 0.00625 (at node 15)
	maximum = 0.01325 (at node 7)
Accepted packet rate average = 0.00990625
	minimum = 0.00725 (at node 11)
	maximum = 0.01375 (at node 15)
Injected flit rate average = 0.00996875
	minimum = 0.00625 (at node 15)
	maximum = 0.01325 (at node 7)
Accepted flit rate average= 0.00990625
	minimum = 0.00725 (at node 11)
	maximum = 0.01375 (at node 15)
Injected packet length average = 1
Accepted packet length average = 1
Total in-flight flits = 5 (5 measured)
latency change    = 0.0131432
throughput change = 0.0157729
Class 0:
Packet latency average = 19.962
	minimum = 7
	maximum = 54
Network latency average = 19.962
	minimum = 7
	maximum = 54
Slowest packet = 2079
Flit latency average = 19.9772
	minimum = 7
	maximum = 54
Slowest flit = 2079
Fragmentation average = 0
	minimum = 0
	maximum = 0
Injected packet rate average = 0.0098875
	minimum = 0.0064 (at node 15)
	maximum = 0.0126 (at node 7)
Accepted packet rate average = 0.0098875
	minimum = 0.0078 (at node 4)
	maximum = 0.0136 (at node 15)
Injected flit rate average = 0.0098875
	minimum = 0.0064 (at node 15)
	maximum = 0.0126 (at node 7)
Accepted flit rate average= 0.0098875
	minimum = 0.0078 (at node 4)
	maximum = 0.0136 (at node 15)
Injected packet length average = 1
Accepted packet length average = 1
Total in-flight flits = 1 (1 measured)
latency change    = 0.00213976
throughput change = 0.00189633
Draining all recorded packets ...
Draining remaining packets ...
Time taken is 8005 cycles
Class 0:
Packet latency average = 19.2901
	minimum = 7
	maximum = 52
Network latency average = 19.2901
	minimum = 7
	maximum = 52
Slowest packet = 2712
Flit latency average = 19.2901
	minimum = 7
	maximum = 52
Slowest flit = 2712
Fragmentation average = 0
	minimum = 0
	maximum = 0
Injected packet rate average = 0.01025
	minimum = 0.004 (at node 1)
	maximum = 0.02 (at node 9)
Accepted packet rate average = 0.010125
	minimum = 0.003 (at node 11)
	maximum = 0.017 (at node 5)
Injected flit rate average = 0.01025
	minimum = 0.004 (at node 1)
	maximum = 0.02 (at node 9)
Accepted flit rate average= 0.010125
	minimum = 0.003 (at node 11)
	maximum = 0.017 (at node 5)
Injected packet length average = 1
Accepted packet length average = 1
Total in-flight flits = 2 (0 measured)
latency change    = 1
throughput change = 1
Class 0:
Packet latency average = 19.8646
	minimum = 7
	maximum = 52
Network latency average = 19.8646
	minimum = 7
	maximum = 52
Slowest packet = 2712
Flit latency average = 19.8646
	minimum = 7
	maximum = 52
Slowest flit = 2712
Fragmentation average = 0
	minimum = 0
	maximum = 0
Injected packet rate average = 0.01025
	minimum = 0.005 (at node 1)
	maximum = 0.015 (at node 9)
Accepted packet rate average = 0.0101563
	minimum = 0.005 (at node 11)
	maximum = 0.014 (at node 0)
Injected flit rate average = 0.01025
	minimum = 0.005 (at node 1)
	maximum = 0.015 (at node 9)
Accepted flit rate average= 0.0101563
	minimum = 0.005 (at node 11)
	maximum = 0.014 (at node 0)
Injected packet length average = 1
Accepted packet length average = 1
Total in-flight flits = 3 (0 measured)
latency change    = 0.0289204
throughput change = 0.00307692
Class 0:
Packet latency average = 19.3659
	minimum = 7
	maximum = 37
Network latency average = 19.3659
	minimum = 7
	maximum = 37
Slowest packet = 2936
Flit latency average = 19.3659
	minimum = 7
	maximum = 37
Slowest flit = 2936
Fragmentation average = 0
	minimum = 0
	maximum = 0
Injected packet rate average = 0.0103125
	minimum = 0.006 (at node 1)
	maximum = 0.015 (at node 11)
Accepted packet rate average = 0.01025
	minimum = 0.005 (at node 5)
	maximum = 0.016 (at node 15)
Injected flit rate average = 0.0103125
	minimum = 0.006 (at node 1)
	maximum = 0.015 (at node 11)
Accepted flit rate average= 0.01025
	minimum = 0.005 (at node 5)
	maximum = 0.016 (at node 15)
Injected packet length average = 1
Accepted packet length average = 1
Total in-flight flits = 4 (0 measured)
latency change    = 0.0257547
throughput change = 0.00914634
Warmed up ...Time used is 3000 cycles
Class 0:
Packet latency average = 18.9623
	minimum = 7
	maximum = 37
Network latency average = 18.9623
	minimum = 7
	maximum = 37
Slowest packet = 3063
Flit latency average = 19.1288
	minimum = 7
	maximum = 37
Slowest flit = 3054
Fragmentation average = 0
	minimum = 0
	maximum = 0
Injected packet rate average = 0.010125
	minimum = 0.005 (at node 0)
	maximum = 0.019 (at node 5)
Accepted packet rate average = 0.0101875
	minimum = 0.005 (at node 11)
	maximum = 0.015 (at node 1)
Injected flit rate average = 0.010125
	minimum = 0.005 (at node 0)
	maximum = 0.019 (at node 5)
Accepted flit rate average= 0.0101875
	minimum = 0.005 (at node 11)
	maximum = 0.015 (at node 1)
Injected packet length average = 1
Accepted packet length average = 1
Total in-flight flits = 3 (3 measured)
latency change    = 0.0212838
throughput change = 0.00613497
Class 0:
Packet latency average = 19.4491
	minimum = 7
	maximum = 41
Network latency average = 19.4491
	minimum = 7
	maximum = 41
Slowest packet = 3245
Flit latency average = 19.5237
	minimum = 7
	maximum = 41
Slowest flit = 3245
Fragmentation average = 0
	minimum = 0
	maximum = 0
Injected packet rate average = 0.010625
	minimum = 0.0065 (at node 15)
	maximum = 0.0145 (at node 5)
Accepted packet rate average = 0.0105625
	minimum = 0.005 (at node 14)
	maximum = 0.015 (at node 6)
Injected flit rate average = 0.010625
	minimum = 0.0065 (at node 15)
	maximum = 0.0145 (at node 5)
Accepted flit rate average= 0.0105625
	minimum = 0.005 (at node 14)
	maximum = 0.015 (at node 6)
Injected packet length average = 1
Accepted packet length average = 1
Total in-flight flits = 6 (6 measured)
latency change    = 0.0250314
throughput change = 0.035503
Class 0:
Packet latency average = 19.6789
	minimum = 7
	maximum = 42
Network latency average = 19.6789
	minimum = 7
	maximum = 42
Slowest packet = 3423
Flit latency average = 19.7255
	minimum = 7
	maximum = 42
Slowest flit = 3423
Fragmentation average = 0
	minimum = 0
	maximum = 0
Injected packet rate average = 0.0108333
	minimum = 0.008 (at node 15)
	maximum = 0.013 (at node 5)
Accepted packet rate average = 0.0108542
	minimum = 0.00666667 (at node 9)
	maximum = 0.014 (at node 6)
Injected flit rate average = 0.0108333
	minimum = 0.008 (at node 15)
	maximum = 0.013 (at node 5)
Accepted flit rate average= 0.0108542
	minimum = 0.00666667 (at node 9)
	maximum = 0.014 (at node 6)
Injected packet length average = 1
Accepted packet length average = 1
Total in-flight flits = 3 (3 measured)
latency change    = 0.0116782
throughput change = 0.0268714
Draining all recorded packets ...
Draining remaining packets ...
Time taken is 6038 cycles
Class 0:
Packet latency average = 20.2614
	minimum = 7
	maximum = 37
Network latency average = 20.2614
	minimum = 7
	maximum = 37
Slowest packet = 3594
Flit latency average = 20.2614
	minimum = 7
	maximum = 37
Slowest flit = 3594
Fragmentation average = 0
	minimum = 0
	maximum = 0
Injected packet rate average = 0.0110625
	minimum = 0.006 (at node 6)
	maximum = 0.016 (at node 3)
Accepted packet rate average = 0.011
	minimum = 0.005 (at node 15)
	maximum = 0.018 (at node 2)
Injected flit rate average = 0.0110625
	minimum = 0.006 (at node 6)
	maximum = 0.016 (at node 3)
Accepted flit rate average= 0.011
	minimum = 0.005 (at node 15)
	maximum = 0.018 (at node 2)
Injected packet length average = 1
Accepted packet length average = 1
Total in-flight flits = 1 (0 measured)
latency change    = 1
throughput change = 1
Class 0:
Packet latency average = 19.796
	minimum = 7
	maximum = 37
Network latency average = 19.796
	minimum = 7
	maximum = 37
Slowest packet = 3594
Flit latency average = 19.796
	minimum = 7
	maximum = 37
Slowest flit = 3594
Fragmentation average = 0
	minimum = 0
	maximum = 0
Injected packet rate average = 0.0109687
	minimum = 0.0065 (at node 12)
	maximum = 0.0155 (at node 2)
Accepted packet rate average = 0.010875
	minimum = 0.006 (at node 13)
	maximum = 0.0155 (at node 8)
Injected flit rate average = 0.0109687
	minimum = 0.0065 (at node 12)
	maximum = 0.0155 (at node 2)
Accepted flit rate average= 0.010875
	minimum = 0.006 (at node 13)
	maximum = 0.0155 (at node 8)
Injected packet length average = 1
Accepted packet length average = 1
Total in-flight flits = 3 (0 measured)
latency change    = 0.0235092
throughput change = 0.0114943
Class 0:
Packet latency average = 19.5062
	minimum = 7
	maximum = 42
Network latency average = 19.5062
	minimum = 7
	maximum = 42
Slowest packet = 3944
Flit latency average = 19.5062
	minimum = 7
	maximum = 42
Slowest flit = 3944
Fragmentation average = 0
	minimum = 0
	maximum = 0
Injected packet rate average = 0.01
	minimum = 0.006 (at node 5)
	maximum = 0.014 (at node 9)
Accepted packet rate average = 0.010125
	minimum = 0.006 (at node 6)
	maximum = 0.016 (at node 1)
Injected flit rate average = 0.01
	minimum = 0.006 (at node 5)
	maximum = 0.014 (at node 9)
Accepted flit rate average= 0.010125
	minimum = 0.006 (at node 6)
	maximum = 0.016 (at node 1)
Injected packet length average = 1
Accepted packet length average = 1
Total in-flight flits = 1 (0 measured)
latency change    = 0.014857
throughput change = 0.0740741
Warmed up ...Time used is 3000 cycles
Class 0:
Packet latency average = 18.8679
	minimum = 7
	maximum = 37
Network latency average = 18.8679
	minimum = 7
	maximum = 37
Slowest packet = 4191
Flit latency average = 18.825
	minimum = 7
	maximum = 37
Slowest flit = 4191
Fragmentation average = 0
	minimum = 0
	maximum = 0
Injected packet rate average = 0.01025
	minimum = 0.006 (at node 10)
	maximum = 0.015 (at node 4)
Accepted packet rate average = 0.01
	minimum = 0.005 (at node 11)
	maximum = 0.016 (at node 2)
Injected flit rate average = 0.01025
	minimum = 0.006 (at node 10)
	maximum = 0.015 (at node 4)
Accepted flit rate average= 0.01
	minimum = 0.005 (at node 11)
	maximum = 0.016 (at node 2)
Injected packet length average = 1
Accepted packet length average = 1
Total in-flight flits = 5 (5 measured)
latency change    = 0.0338272
throughput change = 0.0125
Class 0:
Packet latency average = 18.8813
	minimum = 7
	maximum = 37
Network latency average = 18.8813
	minimum = 7
	maximum = 37
Slowest packet = 4191
Flit latency average = 18.8609
	minimum = 7
	maximum = 37
Slowest flit = 4191
Fragmentation average = 0
	minimum = 0
	maximum = 0
Injected packet rate average = 0.010625
	minimum = 0.0055 (at node 1)
	maximum = 0.0155 (at node 8)
Accepted packet rate average = 0.0105625
	minimum = 0.006 (at node 11)
	maximum = 0.015 (at node 2)
Injected flit rate average = 0.010625
	minimum = 0.0055 (at node 1)
	maximum = 0.0155 (at node 8)
Accepted flit rate average= 0.0105625
	minimum = 0.006 (at node 11)
	maximum = 0.015 (at node 2)
Injected packet length average = 1
Accepted packet length average = 1
Total in-flight flits = 3 (3 measured)
latency change    = 0.000708696
throughput change = 0.0532544
Class 0:
Packet latency average = 18.9796
	minimum = 7
	maximum = 37
Network latency average = 18.9796
	minimum = 7
	maximum = 37
Slowest packet = 4191
Flit latency average = 18.9654
	minimum = 7
	maximum = 37
Slowest flit = 4191
Fragmentation average = 0
	minimum = 0
	maximum = 0
Injected packet rate average = 0.0102917
	minimum = 0.007 (at node 1)
	maximum = 0.0133333 (at node 9)
Accepted packet rate average = 0.01025
	minimum = 0.007 (at node 0)
	maximum = 0.0156667 (at node 6)
Injected flit rate average = 0.0102917
	minimum = 0.007 (at node 1)
	maximum = 0.0133333 (at node 9)
Accepted flit rate average= 0.01025
	minimum = 0.007 (at node 0)
	maximum = 0.0156667 (at node 6)
Injected packet length average = 1
Accepted packet length average = 1
Total in-flight flits = 3 (3 measured)
latency change    = 0.0051807
throughput change = 0.0304878
Class 0:
Packet latency average = 19.0111
	minimum = 7
	maximum = 38
Network latency average = 19.0111
	minimum = 7
	maximum = 38
Slowest packet = 4637
Flit latency average = 19
	minimum = 7
	maximum = 38
Slowest flit = 4637
Fragmentation average = 0
	minimum = 0
	maximum = 0
Injected packet rate average = 0.00992188
	minimum = 0.00725 (at node 1)
	maximum = 0.01225 (at node 8)
Accepted packet rate average = 0.00990625
	minimum = 0.00675 (at node 8)
	maximum = 0.014 (at node 13)
Injected flit rate average = 0.00992188
	minimum = 0.00725 (at node 1)
	maximum = 0.01225 (at node 8)
Accepted flit rate average= 0.00990625
	minimum = 0.00675 (at node 8)
	maximum = 0.014 (at node 13)
Injected packet length average = 1
Accepted packet length average = 1
Total in-flight flits = 2 (2 measured)
latency change    = 0.00165299
throughput change = 0.0347003
Class 0:
Packet latency average = 19.1466
	minimum = 7
	maximum = 43
Network latency average = 19.1466
	minimum = 7
	maximum = 43
Slowest packet = 4754
Flit latency average = 19.1373
	minimum = 7
	maximum = 43
Slowest flit = 4754
Fragmentation average = 0
	minimum = 0
	maximum = 0
Injected packet rate average = 0.009675
	minimum = 0.0074 (at node 3)
	maximum = 0.0118 (at node 8)
Accepted packet rate average = 0.00965
	minimum = 0.007 (at node 0)
	maximum = 0.014 (at node 13)
Injected flit rate average = 0.009675
	minimum = 0.0074 (at node 3)
	maximum = 0.0118 (at node 8)
Accepted flit rate average= 0.00965
	minimum = 0.007 (at node 0)
	maximum = 0.014 (at node 13)
Injected packet length average = 1
Accepted packet length average = 1
Total in-flight flits = 3 (3 measured)
latency change    = 0.00707722
throughput change = 0.0265544
Draining all recorded packets ...
Draining remaining packets ...
Time taken is 8043 cycles
Class 0:
Packet latency average = 20.3333
	minimum = 7
	maximum = 44
Network latency average = 20.3333
	minimum = 7
	maximum = 44
Slowest packet = 4932
Flit latency average = 20.3333
	minimum = 7
	maximum = 44
Slowest flit = 4932
Fragmentation average = 0
	minimum = 0
	maximum = 0
Injected packet rate average = 0.010375
	minimum = 0.007 (at node 11)
	maximum = 0.015 (at node 1)
Accepted packet rate average = 0.010125
	minimum = 0.006 (at node 0)
	maximum = 0.013 (at node 2)
Injected flit rate average = 0.010375
	minimum = 0.007 (at node 11)
	maximum = 0.015 (at node 1)
Accepted flit rate average= 0.010125
	minimum = 0.006 (at node 0)
	maximum = 0.013 (at node 2)
Injected packet length average = 1
Accepted packet length average = 1
Total in-flight flits = 4 (0 measured)
latency change    = 1
throughput change = 1
Class 0:
Packet latency average = 19.6901
	minimum = 7
	maximum = 44
Network latency average = 19.6901
	minimum = 7
	maximum = 44
Slowest packet = 4932
Flit latency average = 19.6901
	minimum = 7
	maximum = 44
Slowest flit = 4932
Fragmentation average = 0
	minimum = 0
	maximum = 0
Injected packet rate average = 0.01
	minimum = 0.007 (at node 0)
	maximum = 0.0135 (at node 1)
Accepted packet rate average = 0.00978125
	minimum = 0.0055 (at node 4)
	maximum = 0.013 (at node 13)
Injected flit rate average = 0.01
	minimum = 0.007 (at node 0)
	maximum = 0.0135 (at node 1)
Accepted flit rate average= 0.00978125
	minimum = 0.0055 (at node 4)
	maximum = 0.013 (at node 13)
Injected packet length average = 1
Accepted packet length average = 1
Total in-flight flits = 7 (0 measured)
latency change    = 0.0326681
throughput change = 0.0351438
Class 0:
Packet latency average = 20
	minimum = 7
	maximum = 45
Network latency average = 20
	minimum = 7
	maximum = 45
Slowest packet = 5330
Flit latency average = 20
	minimum = 7
	maximum = 45
Slowest flit = 5330
Fragmentation average = 0
	minimum = 0
	maximum = 0
Injected packet rate average = 0.00925
	minimum = 0.005 (at node 6)
	maximum = 0.015 (at node 3)
Accepted packet rate average = 0.0095
	minimum = 0.002 (at node 11)
	maximum = 0.017 (at node 0)
Injected flit rate average = 0.00925
	minimum = 0.005 (at node 6)
	maximum = 0.015 (at node 3)
Accepted flit rate average= 0.0095
	minimum = 0.002 (at node 11)
	maximum = 0.017 (at node 0)
Injected packet length average = 1
Accepted packet length average = 1
Total in-flight flits = 3 (0 measured)
latency change    = 0.0154952
throughput change = 0.0296053
Warmed up ...Time used is 3000 cycles
Class 0:
Packet latency average = 19.6328
	minimum = 7
	maximum = 42
Network latency average = 19.6328
	minimum = 7
	maximum = 42
Slowest packet = 5458
Flit latency average = 19.7
	minimum = 7
	maximum = 42
Slowest flit = 5458
Fragmentation average = 0
	minimum = 0
	maximum = 0
Injected packet rate average = 0.011625
	minimum = 0.005 (at node 4)
	maximum = 0.019 (at node 13)
Accepted packet rate average = 0.01125
	minimum = 0.005 (at node 4)
	maximum = 0.016 (at node 6)
Injected flit rate average = 0.011625
	minimum = 0.005 (at node 4)
	maximum = 0.019 (at node 13)
Accepted flit rate average= 0.01125
	minimum = 0.005 (at node 4)
	maximum = 0.016 (at node 6)
Injected packet length average = 1
Accepted packet length average = 1
Total in-flight flits = 9 (9 measured)
latency change    = 0.018705
throughput change = 0.155556
Class 0:
Packet latency average = 19.6959
	minimum = 7
	maximum = 42
Network latency average = 19.6959
	minimum = 7
	maximum = 42
Slowest packet = 5458
Flit latency average = 19.7304
	minimum = 7
	maximum = 42
Slowest flit = 5458
Fragmentation average = 0
	minimum = 0
	maximum = 0
Injected packet rate average = 0.0107188
	minimum = 0.0085 (at node 3)
	maximum = 0.0155 (at node 13)
Accepted packet rate average = 0.0107812
	minimum = 0.0065 (at node 9)
	maximum = 0.0155 (at node 14)
Injected flit rate average = 0.0107188
	minimum = 0.0085 (at node 3)
	maximum = 0.0155 (at node 13)
Accepted flit rate average= 0.0107812
	minimum = 0.0065 (at node 9)
	maximum = 0.0155 (at node 14)
Injected packet length average = 1
Accepted packet length average = 1
Total in-flight flits = 1 (1 measured)
latency change    = 0.00320564
throughput change = 0.0434783
Class 0:
Packet latency average = 19.7591
	minimum = 7
	maximum = 42
Network latency average = 19.7591
	minimum = 7
	maximum = 42
Slowest packet = 5458
Flit latency average = 19.7827
	minimum = 7
	maximum = 42
Slowest flit = 5458
Fragmentation average = 0
	minimum = 0
	maximum = 0
Injected packet rate average = 0.0103542
	minimum = 0.007 (at node 3)
	maximum = 0.0133333 (at node 13)
Accepted packet rate average = 0.0103542
	minimum = 0.00666667 (at node 9)
	maximum = 0.013 (at node 1)
Injected flit rate average = 0.0103542
	minimum = 0.007 (at node 3)
	maximum = 0.0133333 (at node 13)
Accepted flit rate average= 0.0103542
	minimum = 0.00666667 (at node 9)
	maximum = 0.013 (at node 1)
Injected packet length average = 1
Accepted packet length average = 1
Total in-flight flits = 3 (3 measured)
latency change    = 0.00319867
throughput change = 0.0412475
Class 0:
Packet latency average = 19.9985
	minimum = 7
	maximum = 42
Network latency average = 19.9985
	minimum = 7
	maximum = 42
Slowest packet = 5458
Flit latency average = 20.0154
	minimum = 7
	maximum = 42
Slowest flit = 5458
Fragmentation average = 0
	minimum = 0
	maximum = 0
Injected packet rate average = 0.0101875
	minimum = 0.00675 (at node 10)
	maximum = 0.0125 (at node 13)
Accepted packet rate average = 0.0101719
	minimum = 0.00725 (at node 9)
	maximum = 0.013 (at node 0)
Injected flit rate average = 0.0101875
	minimum = 0.00675 (at node 10)
	maximum = 0.0125 (at node 13)
Accepted flit rate average= 0.0101719
	minimum = 0.00725 (at node 9)
	maximum = 0.013 (at node 0)
Injected packet length average = 1
Accepted packet length average = 1
Total in-flight flits = 4 (4 measured)
latency change    = 0.0119683
throughput change = 0.0179211
Draining all recorded packets ...
Draining remaining packets ...
Time taken is 7033 cycles
Class 0:
Packet latency average = 19.7151
	minimum = 7
	maximum = 37
Network latency average = 19.7151
	minimum = 7
	maximum = 37
Slowest packet = 6006
Flit latency average = 19.7151
	minimum = 7
	maximum = 37
Slowest flit = 6006
Fragmentation average = 0
	minimum = 0
	maximum = 0
Injected packet rate average = 0.0118125
	minimum = 0.007 (at node 2)
	maximum = 0.016 (at node 0)
Accepted packet rate average = 0.011625
	minimum = 0.008 (at node 8)
	maximum = 0.016 (at node 3)
Injected flit rate average = 0.0118125
	minimum = 0.007 (at node 2)
	maximum = 0.016 (at node 0)
Accepted flit rate average= 0.011625
	minimum = 0.008 (at node 8)
	maximum = 0.016 (at node 3)
Injected packet length average = 1
Accepted packet length average = 1
Total in-flight flits = 3 (0 measured)
latency change    = 1
throughput change = 1
Class 0:
Packet latency average = 19.9222
	minimum = 7
	maximum = 39
Network latency average = 19.9222
	minimum = 7
	maximum = 39
Slowest packet = 6228
Flit latency average = 19.9222
	minimum = 7
	maximum = 39
Slowest flit = 6228
Fragmentation average = 0
	minimum = 0
	maximum = 0
Injected packet rate average = 0.0113125
	minimum = 0.0075 (at node 2)
	maximum = 0.016 (at node 12)
Accepted packet rate average = 0.01125
	minimum = 0.008 (at node 8)
	maximum = 0.016 (at node 5)
Injected flit rate average = 0.0113125
	minimum = 0.0075 (at node 2)
	maximum = 0.016 (at node 12)
Accepted flit rate average= 0.01125
	minimum = 0.008 (at node 8)
	maximum = 0.016 (at node 5)
Injected packet length average = 1
Accepted packet length average = 1
Total in-flight flits = 2 (0 measured)
latency change    = 0.0103989
throughput change = 0.0333333
Class 0:
Packet latency average = 19.7697
	minimum = 7
	maximum = 36
Network latency average = 19.7697
	minimum = 7
	maximum = 36
Slowest packet = 6376
Flit latency average = 19.7697
	minimum = 7
	maximum = 36
Slowest flit = 6376
Fragmentation average = 0
	minimum = 0
	maximum = 0
Injected packet rate average = 0.009625
	minimum = 0.006 (at node 2)
	maximum = 0.016 (at node 3)
Accepted packet rate average = 0.0095
	minimum = 0.005 (at node 4)
	maximum = 0.016 (at node 9)
Injected flit rate average = 0.009625
	minimum = 0.006 (at node 2)
	maximum = 0.016 (at node 3)
Accepted flit rate average= 0.0095
	minimum = 0.005 (at node 4)
	maximum = 0.016 (at node 9)
Injected packet length average = 1
Accepted packet length average = 1
Total in-flight flits = 4 (0 measured)
latency change    = 0.00771307
throughput change = 0.184211
Warmed up ...Time used is 3000 cycles
Class 0:
Packet latency average = 19.0714
	minimum = 7
	maximum = 37
Network latency average = 19.0714
	minimum = 7
	maximum = 37
Slowest packet = 6552
Flit latency average = 19.2569
	minimum = 7
	maximum = 37
Slowest flit = 6552
Fragmentation average = 0
	minimum = 0
	maximum = 0
Injected packet rate average = 0.0089375
	minimum = 0.005 (at node 7)
	maximum = 0.013 (at node 13)
Accepted packet rate average = 0.009
	minimum = 0.004 (at node 12)
	maximum = 0.015 (at node 9)
Injected flit rate average = 0.0089375
	minimum = 0.005 (at node 7)
	maximum = 0.013 (at node 13)
Accepted flit rate average= 0.009
	minimum = 0.004 (at node 12)
	maximum = 0.015 (at node 9)
Injected packet length average = 1
Accepted packet length average = 1
Total in-flight flits = 3 (3 measured)
latency change    = 0.0366154
throughput change = 0.0555556
Class 0:
Packet latency average = 19.781
	minimum = 7
	maximum = 38
Network latency average = 19.781
	minimum = 7
	maximum = 38
Slowest packet = 6766
Flit latency average = 19.8558
	minimum = 7
	maximum = 38
Slowest flit = 6766
Fragmentation average = 0
	minimum = 0
	maximum = 0
Injected packet rate average = 0.00996875
	minimum = 0.0065 (at node 7)
	maximum = 0.013 (at node 15)
Accepted packet rate average = 0.00996875
	minimum = 0.0065 (at node 2)
	maximum = 0.0155 (at node 15)
Injected flit rate average = 0.00996875
	minimum = 0.0065 (at node 7)
	maximum = 0.013 (at node 15)
Accepted flit rate average= 0.00996875
	minimum = 0.0065 (at node 2)
	maximum = 0.0155 (at node 15)
Injected packet length average = 1
Accepted packet length average = 1
Total in-flight flits = 4 (4 measured)
latency change    = 0.035869
throughput change = 0.0971787
Class 0:
Packet latency average = 19.8121
	minimum = 7
	maximum = 42
Network latency average = 19.8121
	minimum = 7
	maximum = 42
Slowest packet = 6898
Flit latency average = 19.8613
	minimum = 7
	maximum = 42
Slowest flit = 6898
Fragmentation average = 0
	minimum = 0
	maximum = 0
Injected packet rate average = 0.0100417
	minimum = 0.00733333 (at node 7)
	maximum = 0.0126667 (at node 13)
Accepted packet rate average = 0.0100625
	minimum = 0.00733333 (at node 11)
	maximum = 0.0133333 (at node 13)
Injected flit rate average = 0.0100417
	minimum = 0.00733333 (at node 7)
	maximum = 0.0126667 (at node 13)
Accepted flit rate average= 0.0100625
	minimum = 0.00733333 (at node 11)
	maximum = 0.0133333 (at node 13)
Injected packet length average = 1
Accepted packet length average = 1
Total in-flight flits = 3 (3 measured)
latency change    = 0.00157258
throughput change = 0.00931677
Class 0:
Packet latency average = 19.851
	minimum = 7
	maximum = 44
Network latency average = 19.851
	minimum = 7
	maximum = 44
Slowest packet = 7114
Flit latency average = 19.887
	minimum = 7
	maximum = 44
Slowest flit = 7114
Fragmentation average = 0
	minimum = 0
	maximum = 0
Injected packet rate average = 0.0102031
	minimum = 0.0085 (at node 4)
	maximum = 0.01325 (at node 13)
Accepted packet rate average = 0.0102344
	minimum = 0.00725 (at node 11)
	maximum = 0.013 (at node 5)
Injected flit rate average = 0.0102031
	minimum = 0.0085 (at node 4)
	maximum = 0.01325 (at node 13)
Accepted flit rate average= 0.0102344
	minimum = 0.00725 (at node 11)
	maximum = 0.013 (at node 5)
Injected packet length average = 1
Accepted packet length average = 1
Total in-flight flits = 2 (2 measured)
latency change    = 0.00195909
throughput change = 0.0167939
Class 0:
Packet latency average = 19.8776
	minimum = 7
	maximum = 44
Network latency average = 19.8776
	minimum = 7
	maximum = 44
Slowest packet = 7114
Flit latency average = 19.9065
	minimum = 7
	maximum = 44
Slowest flit = 7114
Fragmentation average = 0
	minimum = 0
	maximum = 0
Injected packet rate average = 0.0101375
	minimum = 0.0082 (at node 12)
	maximum = 0.0132 (at node 15)
Accepted packet rate average = 0.0101625
	minimum = 0.0074 (at node 11)
	maximum = 0.0132 (at node 5)
Injected flit rate average = 0.0101375
	minimum = 0.0082 (at node 12)
	maximum = 0.0132 (at node 15)
Accepted flit rate average= 0.0101625
	minimum = 0.0074 (at node 11)
	maximum = 0.0132 (at node 5)
Injected packet length average = 1
Accepted packet length average = 1
Total in-flight flits = 2 (2 measured)
latency change    = 0.00133961
throughput change = 0.00707257
Draining all recorded packets ...
Draining remaining packets ...
Time taken is 8034 cycles
Class 0:
Packet latency average = 19.9014
	minimum = 7
	maximum = 37
Network latency average = 19.9014
	minimum = 7
	maximum = 37
Slowest packet = 7384
Flit latency average = 19.9014
	minimum = 7
	maximum = 37
Slowest flit = 7384
Fragmentation average = 0
	minimum = 0
	maximum = 0
Injected packet rate average = 0.009125
	minimum = 0.005 (at node 3)
	maximum = 0.013 (at node 0)
Accepted packet rate average = 0.008875
	minimum = 0.004 (at node 5)
	maximum = 0.012 (at node 1)
Injected flit rate average = 0.009125
	minimum = 0.005 (at node 3)
	maximum = 0.013 (at node 0)
Accepted flit rate average= 0.008875
	minimum = 0.004 (at node 5)
	maximum = 0.012 (at node 1)
Injected packet length average = 1
Accepted packet length average = 1
Total in-flight flits = 4 (0 measured)
latency change    = 1
throughput change = 1
Class 0:
Packet latency average = 20.0166
	minimum = 7
	maximum = 47
Network latency average = 20.0166
	minimum = 7
	maximum = 47
Slowest packet = 7607
Flit latency average = 20.0166
	minimum = 7
	maximum = 47
Slowest flit = 7607
Fragmentation average = 0
	minimum = 0
	maximum = 0
Injected packet rate average = 0.00946875
	minimum = 0.005 (at node 11)
	maximum = 0.012 (at node 9)
Accepted packet rate average = 0.0094375
	minimum = 0.006 (at node 5)
	maximum = 0.0145 (at node 1)
Injected flit rate average = 0.00946875
	minimum = 0.005 (at node 11)
	maximum = 0.012 (at node 9)
Accepted flit rate average= 0.0094375
	minimum = 0.006 (at node 5)
	maximum = 0.0145 (at node 1)
Injected packet length average = 1
Accepted packet length average = 1
Total in-flight flits = 1 (0 measured)
latency change    = 0.00575263
throughput change = 0.0596026
Class 0:
Packet latency average = 19.4571
	minimum = 7
	maximum = 39
Network latency average = 19.4571
	minimum = 7
	maximum = 39
Slowest packet = 7681
Flit latency average = 19.4571
	minimum = 7
	maximum = 39
Slowest flit = 7681
Fragmentation average = 0
	minimum = 0
	maximum = 0
Injected packet rate average = 0.0111875
	minimum = 0.005 (at node 4)
	maximum = 0.017 (at node 9)
Accepted packet rate average = 0.0109375
	minimum = 0.005 (at node 8)
	maximum = 0.019 (at node 12)
Injected flit rate average = 0.0111875
	minimum = 0.005 (at node 4)
	maximum = 0.017 (at node 9)
Accepted flit rate average= 0.0109375
	minimum = 0.005 (at node 8)
	maximum = 0.019 (at node 12)
Injected packet length average = 1
Accepted packet length average = 1
Total in-flight flits = 5 (0 measured)
latency change    = 0.0287511
throughput change = 0.137143
Warmed up ...Time used is 3000 cycles
Class 0:
Packet latency average = 19.5625
	minimum = 7
	maximum = 37
Network latency average = 19.5625
	minimum = 7
	maximum = 37
Slowest packet = 7866
Flit latency average = 19.6061
	minimum = 7
	maximum = 37
Slowest flit = 7866
Fragmentation average = 0
	minimum = 0
	maximum = 0
Injected packet rate average = 0.01025
	minimum = 0.006 (at node 10)
	maximum = 0.017 (at node 5)
Accepted packet rate average = 0.0103125
	minimum = 0.005 (at node 8)
	maximum = 0.016 (at node 10)
Injected flit rate average = 0.01025
	minimum = 0.006 (at node 10)
	maximum = 0.017 (at node 5)
Accepted flit rate average= 0.0103125
	minimum = 0.005 (at node 8)
	maximum = 0.016 (at node 10)
Injected packet length average = 1
Accepted packet length average = 1
Total in-flight flits = 4 (4 measured)
latency change    = 0.00538567
throughput change = 0.0606061
Class 0:
Packet latency average = 19.5692
	minimum = 7
	maximum = 37
Network latency average = 19.5692
	minimum = 7
	maximum = 37
Slowest packet = 7866
Flit latency average = 19.5913
	minimum = 7
	maximum = 37
Slowest flit = 7866
Fragmentation average = 0
	minimum = 0
	maximum = 0
Injected packet rate average = 0.00996875
	minimum = 0.0075 (at node 8)
	maximum = 0.0135 (at node 1)
Accepted packet rate average = 0.0100938
	minimum = 0.006 (at node 1)
	maximum = 0.0135 (at node 0)
Injected flit rate average = 0.00996875
	minimum = 0.0075 (at node 8)
	maximum = 0.0135 (at node 1)
Accepted flit rate average= 0.0100938
	minimum = 0.006 (at node 1)
	maximum = 0.0135 (at node 0)
Injected packet length average = 1
Accepted packet length average = 1
Total in-flight flits = 1 (1 measured)
latency change    = 0.000341475
throughput change = 0.0216718
Class 0:
Packet latency average = 19.9836
	minimum = 7
	maximum = 43
Network latency average = 19.9836
	minimum = 7
	maximum = 43
Slowest packet = 8189
Flit latency average = 19.9939
	minimum = 7
	maximum = 43
Slowest flit = 8189
Fragmentation average = 0
	minimum = 0
	maximum = 0
Injected packet rate average = 0.0102292
	minimum = 0.008 (at node 8)
	maximum = 0.013 (at node 5)
Accepted packet rate average = 0.0102917
	minimum = 0.008 (at node 3)
	maximum = 0.0133333 (at node 10)
Injected flit rate average = 0.0102292
	minimum = 0.008 (at node 8)
	maximum = 0.013 (at node 5)
Accepted flit rate average= 0.0102917
	minimum = 0.008 (at node 3)
	maximum = 0.0133333 (at node 10)
Injected packet length average = 1
Accepted packet length average = 1
Total in-flight flits = 2 (2 measured)
latency change    = 0.0207398
throughput change = 0.0192308
Class 0:
Packet latency average = 19.6997
	minimum = 7
	maximum = 43
Network latency average = 19.6997
	minimum = 7
	maximum = 43
Slowest packet = 8189
Flit latency average = 19.7094
	minimum = 7
	maximum = 43
Slowest flit = 8189
Fragmentation average = 0
	minimum = 0
	maximum = 0
Injected packet rate average = 0.0104531
	minimum = 0.0085 (at node 8)
	maximum = 0.013 (at node 5)
Accepted packet rate average = 0.0104844
	minimum = 0.008 (at node 3)
	maximum = 0.013 (at node 10)
Injected flit rate average = 0.0104531
	minimum = 0.0085 (at node 8)
	maximum = 0.013 (at node 5)
Accepted flit rate average= 0.0104844
	minimum = 0.008 (at node 3)
	maximum = 0.013 (at node 10)
Injected packet length average = 1
Accepted packet length average = 1
Total in-flight flits = 3 (3 measured)
latency change    = 0.0144134
throughput change = 0.0183805
Draining all recorded packets ...
Draining remaining packets ...
Time taken is 7028 cycles
Class 0:
Packet latency average = 20.7885
	minimum = 7
	maximum = 37
Network latency average = 20.7885
	minimum = 7
	maximum = 37
Slowest packet = 8515
Flit latency average = 20.7885
	minimum = 7
	maximum = 37
Slowest flit = 8515
Fragmentation average = 0
	minimum = 0
	maximum = 0
Injected packet rate average = 0.0103125
	minimum = 0.005 (at node 4)
	maximum = 0.018 (at node 0)
Accepted packet rate average = 0.00975
	minimum = 0.007 (at node 12)
	maximum = 0.014 (at node 10)
Injected flit rate average = 0.0103125
	minimum = 0.005 (at node 4)
	maximum = 0.018 (at node 0)
Accepted flit rate average= 0.00975
	minimum = 0.007 (at node 12)
	maximum = 0.014 (at node 10)
Injected packet length average = 1
Accepted packet length average = 1
Total in-flight flits = 9 (0 measured)
latency change    = 1
throughput change = 1
Class 0:
Packet latency average = 20.3131
	minimum = 7
	maximum = 37
Network latency average = 20.3131
	minimum = 7
	maximum = 37
Slowest packet = 8515
Flit latency average = 20.3131
	minimum = 7
	maximum = 37
Slowest flit = 8515
Fragmentation average = 0
	minimum = 0
	maximum = 0
Injected packet rate average = 0.0103125
	minimum = 0.0065 (at node 4)
	maximum = 0.0155 (at node 0)
Accepted packet rate average = 0.0102813
	minimum = 0.007 (at node 8)
	maximum = 0.0135 (at node 7)
Injected flit rate average = 0.0103125
	minimum = 0.0065 (at node 4)
	maximum = 0.0155 (at node 0)
Accepted flit rate average= 0.0102813
	minimum = 0.007 (at node 8)
	maximum = 0.0135 (at node 7)
Injected packet length average = 1
Accepted packet length average = 1
Total in-flight flits = 1 (0 measured)
latency change    = 0.0234032
throughput change = 0.0516717
Class 0:
Packet latency average = 18.9728
	minimum = 7
	maximum = 41
Network latency average = 18.9728
	minimum = 7
	maximum = 41
Slowest packet = 8823
Flit latency average = 18.9728
	minimum = 7
	maximum = 41
Slowest flit = 8823
Fragmentation average = 0
	minimum = 0
	maximum = 0
Injected packet rate average = 0.0094375
	minimum = 0.003 (at node 1)
	maximum = 0.013 (at node 3)
Accepted packet rate average = 0.0091875
	minimum = 0.004 (at node 2)
	maximum = 0.015 (at node 13)
Injected flit rate average = 0.0094375
	minimum = 0.003 (at node 1)
	maximum = 0.013 (at node 3)
Accepted flit rate average= 0.0091875
	minimum = 0.004 (at node 2)
	maximum = 0.015 (at node 13)
Injected packet length average = 1
Accepted packet length average = 1
Total in-flight flits = 5 (0 measured)
latency change    = 0.0706423
throughput change = 0.119048
Warmed up ...Time used is 3000 cycles
Class 0:
Packet latency average = 18.4076
	minimum = 7
	maximum = 37
Network latency average = 18.4076
	minimum = 7
	maximum = 37
Slowest packet = 9059
Flit latency average = 18.6358
	minimum = 7
	maximum = 37
Slowest flit = 9059
Fragmentation average = 0
	minimum = 0
	maximum = 0
Injected packet rate average = 0.0099375
	minimum = 0.004 (at node 6)
	maximum = 0.017 (at node 2)
Accepted packet rate average = 0.010125
	minimum = 0.007 (at node 6)
	maximum = 0.017 (at node 15)
Injected flit rate average = 0.0099375
	minimum = 0.004 (at node 6)
	maximum = 0.017 (at node 2)
Accepted flit rate average= 0.010125
	minimum = 0.007 (at node 6)
	maximum = 0.017 (at node 15)
Injected packet length average = 1
Accepted packet length average = 1
Total in-flight flits = 2 (2 measured)
latency change    = 0.0307017
throughput change = 0.0925926
Class 0:
Packet latency average = 18.9931
	minimum = 7
	maximum = 42
Network latency average = 18.9931
	minimum = 7
	maximum = 42
Slowest packet = 9191
Flit latency average = 19.1085
	minimum = 7
	maximum = 42
Slowest flit = 9191
Fragmentation average = 0
	minimum = 0
	maximum = 0
Injected packet rate average = 0.00925
	minimum = 0.004 (at node 6)
	maximum = 0.014 (at node 2)
Accepted packet rate average = 0.00921875
	minimum = 0.006 (at node 6)
	maximum = 0.0115 (at node 15)
Injected flit rate average = 0.00925
	minimum = 0.004 (at node 6)
	maximum = 0.014 (at node 2)
Accepted flit rate average= 0.00921875
	minimum = 0.006 (at node 6)
	maximum = 0.0115 (at node 15)
Injected packet length average = 1
Accepted packet length average = 1
Total in-flight flits = 6 (6 measured)
latency change    = 0.0308249
throughput change = 0.0983051
Class 0:
Packet latency average = 19.0854
	minimum = 7
	maximum = 42
Network latency average = 19.0854
	minimum = 7
	maximum = 42
Slowest packet = 9191
Flit latency average = 19.16
	minimum = 7
	maximum = 42
Slowest flit = 9191
Fragmentation average = 0
	minimum = 0
	maximum = 0
Injected packet rate average = 0.009375
	minimum = 0.00533333 (at node 6)
	maximum = 0.013 (at node 2)
Accepted packet rate average = 0.009375
	minimum = 0.00566667 (at node 6)
	maximum = 0.0133333 (at node 7)
Injected flit rate average = 0.009375
	minimum = 0.00533333 (at node 6)
	maximum = 0.013 (at node 2)
Accepted flit rate average= 0.009375
	minimum = 0.00566667 (at node 6)
	maximum = 0.0133333 (at node 7)
Injected packet length average = 1
Accepted packet length average = 1
Total in-flight flits = 5 (5 measured)
latency change    = 0.00483563
throughput change = 0.0166667
Class 0:
Packet latency average = 19.3987
	minimum = 7
	maximum = 42
Network latency average = 19.3987
	minimum = 7
	maximum = 42
Slowest packet = 9191
Flit latency average = 19.4498
	minimum = 7
	maximum = 42
Slowest flit = 9191
Fragmentation average = 0
	minimum = 0
	maximum = 0
Injected packet rate average = 0.00973437
	minimum = 0.00575 (at node 15)
	maximum = 0.01325 (at node 2)
Accepted packet rate average = 0.00979688
	minimum = 0.00625 (at node 6)
	maximum = 0.013 (at node 7)
Injected flit rate average = 0.00973437
	minimum = 0.00575 (at node 15)
	maximum = 0.01325 (at node 2)
Accepted flit rate average= 0.00979688
	minimum = 0.00625 (at node 6)
	maximum = 0.013 (at node 7)
Injected packet length average = 1
Accepted packet length average = 1
Total in-flight flits = 1 (1 measured)
latency change    = 0.0161516
throughput change = 0.0430622
Class 0:
Packet latency average = 19.382
	minimum = 7
	maximum = 42
Network latency average = 19.382
	minimum = 7
	maximum = 42
Slowest packet = 9191
Flit latency average = 19.4218
	minimum = 7
	maximum = 42
Slowest flit = 9191
Fragmentation average = 0
	minimum = 0
	maximum = 0
Injected packet rate average = 0.0100875
	minimum = 0.0058 (at node 15)
	maximum = 0.0136 (at node 2)
Accepted packet rate average = 0.010075
	minimum = 0.007 (at node 6)
	maximum = 0.0126 (at node 7)
Injected flit rate average = 0.0100875
	minimum = 0.0058 (at node 15)
	maximum = 0.0136 (at node 2)
Accepted flit rate average= 0.010075
	minimum = 0.007 (at node 6)
	maximum = 0.0126 (at node 7)
Injected packet length average = 1
Accepted packet length average = 1
Total in-flight flits = 6 (6 measured)
latency change    = 0.000861177
throughput change = 0.0276055
Draining all recorded packets ...
Draining remaining packets ...
Time taken is 8035 cycles
Class 0:
Packet latency average = 19.8506
	minimum = 7
	maximum = 37
Network latency average = 19.8506
	minimum = 7
	maximum = 37
Slowest packet = 9830
Flit latency average = 19.8506
	minimum = 7
	maximum = 37
Slowest flit = 9830
Fragmentation average = 0
	minimum = 0
	maximum = 0
Injected packet rate average = 0.0096875
	minimum = 0.005 (at node 1)
	maximum = 0.014 (at node 5)
Accepted packet rate average = 0.009625
	minimum = 0.005 (at node 6)
	maximum = 0.015 (at node 0)
Injected flit rate average = 0.0096875
	minimum = 0.005 (at node 1)
	maximum = 0.014 (at node 5)
Accepted flit rate average= 0.009625
	minimum = 0.005 (at node 6)
	maximum = 0.015 (at node 0)
Injected packet length average = 1
Accepted packet length average = 1
Total in-flight flits = 1 (0 measured)
latency change    = 1
throughput change = 1
Class 0:
Packet latency average = 19.1877
	minimum = 7
	maximum = 37
Network latency average = 19.1877
	minimum = 7
	maximum = 37
Slowest packet = 9830
Flit latency average = 19.1877
	minimum = 7
	maximum = 37
Slowest flit = 9830
Fragmentation average = 0
	minimum = 0
	maximum = 0
Injected packet rate average = 0.00978125
	minimum = 0.005 (at node 8)
	maximum = 0.014 (at node 0)
Accepted packet rate average = 0.00965625
	minimum = 0.0075 (at node 10)
	maximum = 0.0125 (at node 11)
Injected flit rate average = 0.00978125
	minimum = 0.005 (at node 8)
	maximum = 0.014 (at node 0)
Accepted flit rate average= 0.00965625
	minimum = 0.0075 (at node 10)
	maximum = 0.0125 (at node 11)
Injected packet length average = 1
Accepted packet length average = 1
Total in-flight flits = 4 (0 measured)
latency change    = 0.0345506
throughput change = 0.00323625
Class 0:
Packet latency average = 19.4438
	minimum = 7
	maximum = 37
Network latency average = 19.4438
	minimum = 7
	maximum = 37
Slowest packet = 10150
Flit latency average = 19.4438
	minimum = 7
	maximum = 37
Slowest flit = 10150
Fragmentation average = 0
	minimum = 0
	maximum = 0
Injected packet rate average = 0.010375
	minimum = 0.006 (at node 2)
	maximum = 0.016 (at node 15)
Accepted packet rate average = 0.0105625
	minimum = 0.006 (at node 11)
	maximum = 0.016 (at node 5)
Injected flit rate average = 0.010375
	minimum = 0.006 (at node 2)
	maximum = 0.016 (at node 15)
Accepted flit rate average= 0.0105625
	minimum = 0.006 (at node 11)
	maximum = 0.016 (at node 5)
Injected packet length average = 1
Accepted packet length average = 1
Total in-flight flits = 1 (0 measured)
latency change    = 0.0131705
throughput change = 0.0857988
Warmed up ...Time used is 3000 cycles
Class 0:
Packet latency average = 18.6736
	minimum = 7
	maximum = 41
Network latency average = 18.6736
	minimum = 7
	maximum = 41
Slowest packet = 10322
Flit latency average = 18.731
	minimum = 7
	maximum = 41
Slowest flit = 10322
Fragmentation average = 0
	minimum = 0
	maximum = 0
Injected packet rate average = 0.0090625
	minimum = 0.003 (at node 7)
	maximum = 0.016 (at node 10)
Accepted packet rate average = 0.0090625
	minimum = 0.004 (at node 2)
	maximum = 0.017 (at node 1)
Injected flit rate average = 0.0090625
	minimum = 0.003 (at node 7)
	maximum = 0.016 (at node 10)
Accepted flit rate average= 0.0090625
	minimum = 0.004 (at node 2)
	maximum = 0.017 (at node 1)
Injected packet length average = 1
Accepted packet length average = 1
Total in-flight flits = 1 (1 measured)
latency change    = 0.0412441
throughput change = 0.165517
Class 0:
Packet latency average = 19.118
	minimum = 7
	maximum = 41
Network latency average = 19.118
	minimum = 7
	maximum = 41
Slowest packet = 10322
Flit latency average = 19.1438
	minimum = 7
	maximum = 41
Slowest flit = 10322
Fragmentation average = 0
	minimum = 0
	maximum = 0
Injected packet rate average = 0.009625
	minimum = 0.0065 (at node 3)
	maximum = 0.0145 (at node 10)
Accepted packet rate average = 0.0095625
	minimum = 0.006 (at node 5)
	maximum = 0.0175 (at node 1)
Injected flit rate average = 0.009625
	minimum = 0.0065 (at node 3)
	maximum = 0.0145 (at node 10)
Accepted flit rate average= 0.0095625
	minimum = 0.006 (at node 5)
	maximum = 0.0175 (at node 1)
Injected packet length average = 1
Accepted packet length average = 1
Total in-flight flits = 3 (3 measured)
latency change    = 0.0232462
throughput change = 0.0522876
Class 0:
Packet latency average = 19.2863
	minimum = 7
	maximum = 41
Network latency average = 19.2863
	minimum = 7
	maximum = 41
Slowest packet = 10322
Flit latency average = 19.303
	minimum = 7
	maximum = 41
Slowest flit = 10322
Fragmentation average = 0
	minimum = 0
	maximum = 0
Injected packet rate average = 0.0096875
	minimum = 0.007 (at node 13)
	maximum = 0.013 (at node 10)
Accepted packet rate average = 0.009625
	minimum = 0.00633333 (at node 5)
	maximum = 0.0143333 (at node 1)
Injected flit rate average = 0.0096875
	minimum = 0.007 (at node 13)
	maximum = 0.013 (at node 10)
Accepted flit rate average= 0.009625
	minimum = 0.00633333 (at node 5)
	maximum = 0.0143333 (at node 1)
Injected packet length average = 1
Accepted packet length average = 1
Total in-flight flits = 4 (4 measured)
latency change    = 0.00872645
throughput change = 0.00649351
Class 0:
Packet latency average = 19.144
	minimum = 7
	maximum = 41
Network latency average = 19.144
	minimum = 7
	maximum = 41
Slowest packet = 10322
Flit latency average = 19.1569
	minimum = 7
	maximum = 41
Slowest flit = 10322
Fragmentation average = 0
	minimum = 0
	maximum = 0
Injected packet rate average = 0.00964062
	minimum = 0.0075 (at node 13)
	maximum = 0.01175 (at node 10)
Accepted packet rate average = 0.0095625
	minimum = 0.007 (at node 11)
	maximum = 0.01225 (at node 1)
Injected flit rate average = 0.00964062
	minimum = 0.0075 (at node 13)
	maximum = 0.01175 (at node 10)
Accepted flit rate average= 0.0095625
	minimum = 0.007 (at node 11)
	maximum = 0.01225 (at node 1)
Injected packet length average = 1
Accepted packet length average = 1
Total in-flight flits = 6 (6 measured)
latency change    = 0.00743354
throughput change = 0.00653595
Class 0:
Packet latency average = 19.265
	minimum = 7
	maximum = 41
Network latency average = 19.265
	minimum = 7
	maximum = 41
Slowest packet = 10322
Flit latency average = 19.2748
	minimum = 7
	maximum = 41
Slowest flit = 10322
Fragmentation average = 0
	minimum = 0
	maximum = 0
Injected packet rate average = 0.0098875
	minimum = 0.008 (at node 13)
	maximum = 0.012 (at node 10)
Accepted packet rate average = 0.009825
	minimum = 0.0074 (at node 5)
	maximum = 0.0128 (at node 1)
Injected flit rate average = 0.0098875
	minimum = 0.008 (at node 13)
	maximum = 0.012 (at node 10)
Accepted flit rate average= 0.009825
	minimum = 0.0074 (at node 5)
	maximum = 0.0128 (at node 1)
Injected packet length average = 1
Accepted packet length average = 1
Total in-flight flits = 6 (6 measured)
latency change    = 0.00627782
throughput change = 0.0267176
Draining all recorded packets ...
Draining remaining packets ...
Time taken is 8049 cycles
Class 0:
Packet latency average = 19.8562
	minimum = 7
	maximum = 40
Network latency average = 19.8562
	minimum = 7
	maximum = 40
Slowest packet = 11070
Flit latency average = 19.8562
	minimum = 7
	maximum = 40
Slowest flit = 11070
Fragmentation average = 0
	minimum = 0
	maximum = 0
Injected packet rate average = 0.0094375
	minimum = 0.004 (at node 6)
	maximum = 0.018 (at node 1)
Accepted packet rate average = 0.009125
	minimum = 0.005 (at node 1)
	maximum = 0.016 (at node 12)
Injected flit rate average = 0.0094375
	minimum = 0.004 (at node 6)
	maximum = 0.018 (at node 1)
Accepted flit rate average= 0.009125
	minimum = 0.005 (at node 1)
	maximum = 0.016 (at node 12)
Injected packet length average = 1
Accepted packet length average = 1
Total in-flight flits = 5 (0 measured)
latency change    = 1
throughput change = 1
Class 0:
Packet latency average = 20.5643
	minimum = 7
	maximum = 47
Network latency average = 20.5643
	minimum = 7
	maximum = 47
Slowest packet = 11306
Flit latency average = 20.5643
	minimum = 7
	maximum = 47
Slowest flit = 11306
Fragmentation average = 0
	minimum = 0
	maximum = 0
Injected packet rate average = 0.0100313
	minimum = 0.006 (at node 5)
	maximum = 0.015 (at node 1)
Accepted packet rate average = 0.00996875
	minimum = 0.007 (at node 6)
	maximum = 0.0145 (at node 0)
Injected flit rate average = 0.0100313
	minimum = 0.006 (at node 5)
	maximum = 0.015 (at node 1)
Accepted flit rate average= 0.00996875
	minimum = 0.007 (at node 6)
	maximum = 0.0145 (at node 0)
Injected packet length average = 1
Accepted packet length average = 1
Total in-flight flits = 2 (0 measured)
latency change    = 0.0344335
throughput change = 0.0846395
Class 0:
Packet latency average = 19.9018
	minimum = 7
	maximum = 44
Network latency average = 19.9018
	minimum = 7
	maximum = 44
Slowest packet = 11414
Flit latency average = 19.9018
	minimum = 7
	maximum = 44
Slowest flit = 11414
Fragmentation average = 0
	minimum = 0
	maximum = 0
Injected packet rate average = 0.010125
	minimum = 0.005 (at node 1)
	maximum = 0.016 (at node 4)
Accepted packet rate average = 0.0101875
	minimum = 0.006 (at node 1)
	maximum = 0.017 (at node 12)
Injected flit rate average = 0.010125
	minimum = 0.005 (at node 1)
	maximum = 0.016 (at node 4)
Accepted flit rate average= 0.0101875
	minimum = 0.006 (at node 1)
	maximum = 0.017 (at node 12)
Injected packet length average = 1
Accepted packet length average = 1
Total in-flight flits = 1 (0 measured)
latency change    = 0.0332845
throughput change = 0.0214724
Warmed up ...Time used is 3000 cycles
Class 0:
Packet latency average = 19.6978
	minimum = 7
	maximum = 37
Network latency average = 19.6978
	minimum = 7
	maximum = 37
Slowest packet = 11659
Flit latency average = 19.7143
	minimum = 7
	maximum = 37
Slowest flit = 11659
Fragmentation average = 0
	minimum = 0
	maximum = 0
Injected packet rate average = 0.0089375
	minimum = 0.003 (at node 14)
	maximum = 0.016 (at node 11)
Accepted packet rate average = 0.00875
	minimum = 0.004 (at node 10)
	maximum = 0.015 (at node 11)
Injected flit rate average = 0.0089375
	minimum = 0.003 (at node 14)
	maximum = 0.016 (at node 11)
Accepted flit rate average= 0.00875
	minimum = 0.004 (at node 10)
	maximum = 0.015 (at node 11)
Injected packet length average = 1
Accepted packet length average = 1
Total in-flight flits = 4 (4 measured)
latency change    = 0.0103564
throughput change = 0.164286
Class 0:
Packet latency average = 19.6519
	minimum = 7
	maximum = 37
Network latency average = 19.6519
	minimum = 7
	maximum = 37
Slowest packet = 11659
Flit latency average = 19.6593
	minimum = 7
	maximum = 37
Slowest flit = 11659
Fragmentation average = 0
	minimum = 0
	maximum = 0
Injected packet rate average = 0.0100938
	minimum = 0.0065 (at node 14)
	maximum = 0.0155 (at node 11)
Accepted packet rate average = 0.00990625
	minimum = 0.007 (at node 7)
	maximum = 0.016 (at node 11)
Injected flit rate average = 0.0100938
	minimum = 0.0065 (at node 14)
	maximum = 0.0155 (at node 11)
Accepted flit rate average= 0.00990625
	minimum = 0.007 (at node 7)
	maximum = 0.016 (at node 11)
Injected packet length average = 1
Accepted packet length average = 1
Total in-flight flits = 7 (7 measured)
latency change    = 0.00233784
throughput change = 0.116719
Class 0:
Packet latency average = 19.6989
	minimum = 7
	maximum = 37
Network latency average = 19.6989
	minimum = 7
	maximum = 37
Slowest packet = 11659
Flit latency average = 19.7038
	minimum = 7
	maximum = 37
Slowest flit = 11659
Fragmentation average = 0
	minimum = 0
	maximum = 0
Injected packet rate average = 0.0100417
	minimum = 0.008 (at node 5)
	maximum = 0.0126667 (at node 8)
Accepted packet rate average = 0.00991667
	minimum = 0.007 (at node 8)
	maximum = 0.014 (at node 11)
Injected flit rate average = 0.0100417
	minimum = 0.008 (at node 5)
	maximum = 0.0126667 (at node 8)
Accepted flit rate average= 0.00991667
	minimum = 0.007 (at node 8)
	maximum = 0.014 (at node 11)
Injected packet length average = 1
Accepted packet length average = 1
Total in-flight flits = 7 (7 measured)
latency change    = 0.00238838
throughput change = 0.00105042
Class 0:
Packet latency average = 19.9013
	minimum = 7
	maximum = 38
Network latency average = 19.9013
	minimum = 7
	maximum = 38
Slowest packet = 12124
Flit latency average = 19.9046
	minimum = 7
	maximum = 38
Slowest flit = 12124
Fragmentation average = 0
	minimum = 0
	maximum = 0
Injected packet rate average = 0.00985938
	minimum = 0.007 (at node 6)
	maximum = 0.012 (at node 13)
Accepted packet rate average = 0.00982813
	minimum = 0.0075 (at node 4)
	maximum = 0.01275 (at node 6)
Injected flit rate average = 0.00985938
	minimum = 0.007 (at node 6)
	maximum = 0.012 (at node 13)
Accepted flit rate average= 0.00982813
	minimum = 0.0075 (at node 4)
	maximum = 0.01275 (at node 6)
Injected packet length average = 1
Accepted packet length average = 1
Total in-flight flits = 3 (3 measured)
latency change    = 0.0101665
throughput change = 0.00900901
Class 0:
Packet latency average = 19.6893
	minimum = 7
	maximum = 38
Network latency average = 19.6893
	minimum = 7
	maximum = 38
Slowest packet = 12124
Flit latency average = 19.6923
	minimum = 7
	maximum = 38
Slowest flit = 12124
Fragmentation average = 0
	minimum = 0
	maximum = 0
Injected packet rate average = 0.0096875
	minimum = 0.0072 (at node 5)
	maximum = 0.0128 (at node 13)
Accepted packet rate average = 0.0095875
	minimum = 0.0078 (at node 8)
	maximum = 0.0122 (at node 6)
Injected flit rate average = 0.0096875
	minimum = 0.0072 (at node 5)
	maximum = 0.0128 (at node 13)
Accepted flit rate average= 0.0095875
	minimum = 0.0078 (at node 8)
	maximum = 0.0122 (at node 6)
Injected packet length average = 1
Accepted packet length average = 1
Total in-flight flits = 9 (9 measured)
latency change    = 0.0107662
throughput change = 0.0250978
Draining all recorded packets ...
Draining remaining packets ...
Time taken is 8045 cycles
Class 0:
Packet latency average = 20.7059
	minimum = 7
	maximum = 55
Network latency average = 20.7059
	minimum = 7
	maximum = 55
Slowest packet = 12411
Flit latency average = 20.7059
	minimum = 7
	maximum = 55
Slowest flit = 12411
Fragmentation average = 0
	minimum = 0
	maximum = 0
Injected packet rate average = 0.009625
	minimum = 0.005 (at node 5)
	maximum = 0.015 (at node 15)
Accepted packet rate average = 0.0095625
	minimum = 0.003 (at node 15)
	maximum = 0.016 (at node 10)
Injected flit rate average = 0.009625
	minimum = 0.005 (at node 5)
	maximum = 0.015 (at node 15)
Accepted flit rate average= 0.0095625
	minimum = 0.003 (at node 15)
	maximum = 0.016 (at node 10)
Injected packet length average = 1
Accepted packet length average = 1
Total in-flight flits = 1 (0 measured)
latency change    = 1
throughput change = 1
Class 0:
Packet latency average = 20.298
	minimum = 7
	maximum = 55
Network latency average = 20.298
	minimum = 7
	maximum = 55
Slowest packet = 12411
Flit latency average = 20.298
	minimum = 7
	maximum = 55
Slowest flit = 12411
Fragmentation average = 0
	minimum = 0
	maximum = 0
Injected packet rate average = 0.0095
	minimum = 0.0065 (at node 4)
	maximum = 0.0135 (at node 14)
Accepted packet rate average = 0.0094375
	minimum = 0.0065 (at node 12)
	maximum = 0.0145 (at node 14)
Injected flit rate average = 0.0095
	minimum = 0.0065 (at node 4)
	maximum = 0.0135 (at node 14)
Accepted flit rate average= 0.0094375
	minimum = 0.0065 (at node 12)
	maximum = 0.0145 (at node 14)
Injected packet length average = 1
Accepted packet length average = 1
Total in-flight flits = 2 (0 measured)
latency change    = 0.020094
throughput change = 0.013245
Class 0:
Packet latency average = 19.6194
	minimum = 7
	maximum = 37
Network latency average = 19.6194
	minimum = 7
	maximum = 37
Slowest packet = 12721
Flit latency average = 19.6194
	minimum = 7
	maximum = 37
Slowest flit = 12721
Fragmentation average = 0
	minimum = 0
	maximum = 0
Injected packet rate average = 0.008375
	minimum = 0.003 (at node 9)
	maximum = 0.015 (at node 1)
Accepted packet rate average = 0.008375
	minimum = 0.003 (at node 14)
	maximum = 0.013 (at node 6)
Injected flit rate average = 0.008375
	minimum = 0.003 (at node 9)
	maximum = 0.015 (at node 1)
Accepted flit rate average= 0.008375
	minimum = 0.003 (at node 14)
	maximum = 0.013 (at node 6)
Injected packet length average = 1
Accepted packet length average = 1
Total in-flight flits = 2 (0 measured)
latency change    = 0.0345887
throughput change = 0.126866
Warmed up ...Time used is 3000 cycles
Class 0:
Packet latency average = 19.8162
	minimum = 7
	maximum = 38
Network latency average = 19.8162
	minimum = 7
	maximum = 38
Slowest packet = 12796
Flit latency average = 19.8396
	minimum = 7
	maximum = 38
Slowest flit = 12796
Fragmentation average = 0
	minimum = 0
	maximum = 0
Injected packet rate average = 0.01175
	minimum = 0.006 (at node 13)
	maximum = 0.018 (at node 3)
Accepted packet rate average = 0.0116875
	minimum = 0.008 (at node 4)
	maximum = 0.017 (at node 6)
Injected flit rate average = 0.01175
	minimum = 0.006 (at node 13)
	maximum = 0.018 (at node 3)
Accepted flit rate average= 0.0116875
	minimum = 0.008 (at node 4)
	maximum = 0.017 (at node 6)
Injected packet length average = 1
Accepted packet length average = 1
Total in-flight flits = 3 (3 measured)
latency change    = 0.00993193
throughput change = 0.283422
Class 0:
Packet latency average = 19.7771
	minimum = 7
	maximum = 40
Network latency average = 19.7771
	minimum = 7
	maximum = 40
Slowest packet = 12985
Flit latency average = 19.7901
	minimum = 7
	maximum = 40
Slowest flit = 12985
Fragmentation average = 0
	minimum = 0
	maximum = 0
Injected packet rate average = 0.0107188
	minimum = 0.0075 (at node 11)
	maximum = 0.015 (at node 3)
Accepted packet rate average = 0.0107188
	minimum = 0.0085 (at node 7)
	maximum = 0.0135 (at node 12)
Injected flit rate average = 0.0107188
	minimum = 0.0075 (at node 11)
	maximum = 0.015 (at node 3)
Accepted flit rate average= 0.0107188
	minimum = 0.0085 (at node 7)
	maximum = 0.0135 (at node 12)
Injected packet length average = 1
Accepted packet length average = 1
Total in-flight flits = 2 (2 measured)
latency change    = 0.00197653
throughput change = 0.090379
Class 0:
Packet latency average = 19.8412
	minimum = 7
	maximum = 40
Network latency average = 19.8412
	minimum = 7
	maximum = 40
Slowest packet = 12985
Flit latency average = 19.8496
	minimum = 7
	maximum = 40
Slowest flit = 12985
Fragmentation average = 0
	minimum = 0
	maximum = 0
Injected packet rate average = 0.0106667
	minimum = 0.00833333 (at node 7)
	maximum = 0.0133333 (at node 10)
Accepted packet rate average = 0.0106667
	minimum = 0.00766667 (at node 15)
	maximum = 0.0136667 (at node 3)
Injected flit rate average = 0.0106667
	minimum = 0.00833333 (at node 7)
	maximum = 0.0133333 (at node 10)
Accepted flit rate average= 0.0106667
	minimum = 0.00766667 (at node 15)
	maximum = 0.0136667 (at node 3)
Injected packet length average = 1
Accepted packet length average = 1
Total in-flight flits = 2 (2 measured)
latency change    = 0.00322815
throughput change = 0.00488281
Class 0:
Packet latency average = 19.7884
	minimum = 7
	maximum = 43
Network latency average = 19.7884
	minimum = 7
	maximum = 43
Slowest packet = 13294
Flit latency average = 19.7949
	minimum = 7
	maximum = 43
Slowest flit = 13294
Fragmentation average = 0
	minimum = 0
	maximum = 0
Injected packet rate average = 0.0105313
	minimum = 0.009 (at node 11)
	maximum = 0.0125 (at node 14)
Accepted packet rate average = 0.0105156
	minimum = 0.00725 (at node 8)
	maximum = 0.01325 (at node 10)
Injected flit rate average = 0.0105313
	minimum = 0.009 (at node 11)
	maximum = 0.0125 (at node 14)
Accepted flit rate average= 0.0105156
	minimum = 0.00725 (at node 8)
	maximum = 0.01325 (at node 10)
Injected packet length average = 1
Accepted packet length average = 1
Total in-flight flits = 3 (3 measured)
latency change    = 0.00266828
throughput change = 0.0143635
Class 0:
Packet latency average = 19.8217
	minimum = 7
	maximum = 43
Network latency average = 19.8217
	minimum = 7
	maximum = 43
Slowest packet = 13294
Flit latency average = 19.8269
	minimum = 7
	maximum = 43
Slowest flit = 13294
Fragmentation average = 0
	minimum = 0
	maximum = 0
Injected packet rate average = 0.0103875
	minimum = 0.0084 (at node 11)
	maximum = 0.0126 (at node 15)
Accepted packet rate average = 0.0104
	minimum = 0.008 (at node 8)
	maximum = 0.0132 (at node 5)
Injected flit rate average = 0.0103875
	minimum = 0.0084 (at node 11)
	maximum = 0.0126 (at node 15)
Accepted flit rate average= 0.0104
	minimum = 0.008 (at node 8)
	maximum = 0.0132 (at node 5)
Injected packet length average = 1
Accepted packet length average = 1
Total in-flight flits = 1 (1 measured)
latency change    = 0.00168054
throughput change = 0.0111178
Draining all recorded packets ...
Draining remaining packets ...
Time taken is 8039 cycles
Class 0:
Packet latency average = 18.6774
	minimum = 7
	maximum = 42
Network latency average = 18.6774
	minimum = 7
	maximum = 42
Slowest packet = 13588
Flit latency average = 18.6774
	minimum = 7
	maximum = 42
Slowest flit = 13588
Fragmentation average = 0
	minimum = 0
	maximum = 0
Injected packet rate average = 0.0096875
	minimum = 0.006 (at node 0)
	maximum = 0.013 (at node 9)
Accepted packet rate average = 0.0096875
	minimum = 0.006 (at node 3)
	maximum = 0.014 (at node 5)
Injected flit rate average = 0.0096875
	minimum = 0.006 (at node 0)
	maximum = 0.013 (at node 9)
Accepted flit rate average= 0.0096875
	minimum = 0.006 (at node 3)
	maximum = 0.014 (at node 5)
Injected packet length average = 1
Accepted packet length average = 1
Total in-flight flits = 0 (0 measured)
latency change    = 1
throughput change = 1
Class 0:
Packet latency average = 19.3075
	minimum = 7
	maximum = 42
Network latency average = 19.3075
	minimum = 7
	maximum = 42
Slowest packet = 13588
Flit latency average = 19.3075
	minimum = 7
	maximum = 42
Slowest flit = 13588
Fragmentation average = 0
	minimum = 0
	maximum = 0
Injected packet rate average = 0.0100938
	minimum = 0.0065 (at node 7)
	maximum = 0.013 (at node 15)
Accepted packet rate average = 0.0100625
	minimum = 0.0055 (at node 3)
	maximum = 0.0155 (at node 15)
Injected flit rate average = 0.0100938
	minimum = 0.0065 (at node 7)
	maximum = 0.013 (at node 15)
Accepted flit rate average= 0.0100625
	minimum = 0.0055 (at node 3)
	maximum = 0.0155 (at node 15)
Injected packet length average = 1
Accepted packet length average = 1
Total in-flight flits = 1 (0 measured)
latency change    = 0.0326316
throughput change = 0.0372671
Class 0:
Packet latency average = 18.9524
	minimum = 7
	maximum = 39
Network latency average = 18.9524
	minimum = 7
	maximum = 39
Slowest packet = 14047
Flit latency average = 18.9524
	minimum = 7
	maximum = 39
Slowest flit = 14047
Fragmentation average = 0
	minimum = 0
	maximum = 0
Injected packet rate average = 0.0105
	minimum = 0.006 (at node 5)
	maximum = 0.014 (at node 6)
Accepted packet rate average = 0.0105
	minimum = 0.004 (at node 8)
	maximum = 0.02 (at node 15)
Injected flit rate average = 0.0105
	minimum = 0.006 (at node 5)
	maximum = 0.014 (at node 6)
Accepted flit rate average= 0.0105
	minimum = 0.004 (at node 8)
	maximum = 0.02 (at node 15)
Injected packet length average = 1
Accepted packet length average = 1
Total in-flight flits = 1 (0 measured)
latency change    = 0.018735
throughput change = 0.0416667
Warmed up ...Time used is 3000 cycles
Class 0:
Packet latency average = 19.6646
	minimum = 7
	maximum = 41
Network latency average = 19.6646
	minimum = 7
	maximum = 41
Slowest packet = 14207
Flit latency average = 19.7421
	minimum = 7
	maximum = 41
Slowest flit = 14207
Fragmentation average = 0
	minimum = 0
	maximum = 0
Injected packet rate average = 0.0099375
	minimum = 0.006 (at node 3)
	maximum = 0.013 (at node 0)
Accepted packet rate average = 0.0099375
	minimum = 0.005 (at node 7)
	maximum = 0.017 (at node 10)
Injected flit rate average = 0.0099375
	minimum = 0.006 (at node 3)
	maximum = 0.013 (at node 0)
Accepted flit rate average= 0.0099375
	minimum = 0.005 (at node 7)
	maximum = 0.017 (at node 10)
Injected packet length average = 1
Accepted packet length average = 1
Total in-flight flits = 1 (1 measured)
latency change    = 0.0362162
throughput change = 0.0566038
Class 0:
Packet latency average = 19.75
	minimum = 7
	maximum = 41
Network latency average = 19.75
	minimum = 7
	maximum = 41
Slowest packet = 14207
Flit latency average = 19.7902
	minimum = 7
	maximum = 41
Slowest flit = 14207
Fragmentation average = 0
	minimum = 0
	maximum = 0
Injected packet rate average = 0.00953125
	minimum = 0.0065 (at node 3)
	maximum = 0.012 (at node 8)
Accepted packet rate average = 0.00953125
	minimum = 0.007 (at node 7)
	maximum = 0.0135 (at node 3)
Injected flit rate average = 0.00953125
	minimum = 0.0065 (at node 3)
	maximum = 0.012 (at node 8)
Accepted flit rate average= 0.00953125
	minimum = 0.007 (at node 7)
	maximum = 0.0135 (at node 3)
Injected packet length average = 1
Accepted packet length average = 1
Total in-flight flits = 1 (1 measured)
latency change    = 0.00432623
throughput change = 0.042623
Class 0:
Packet latency average = 19.7856
	minimum = 7
	maximum = 41
Network latency average = 19.7856
	minimum = 7
	maximum = 41
Slowest packet = 14207
Flit latency average = 19.8131
	minimum = 7
	maximum = 41
Slowest flit = 14207
Fragmentation average = 0
	minimum = 0
	maximum = 0
Injected packet rate average = 0.00929167
	minimum = 0.00633333 (at node 14)
	maximum = 0.0123333 (at node 8)
Accepted packet rate average = 0.00925
	minimum = 0.00666667 (at node 11)
	maximum = 0.012 (at node 8)
Injected flit rate average = 0.00929167
	minimum = 0.00633333 (at node 14)
	maximum = 0.0123333 (at node 8)
Accepted flit rate average= 0.00925
	minimum = 0.00666667 (at node 11)
	maximum = 0.012 (at node 8)
Injected packet length average = 1
Accepted packet length average = 1
Total in-flight flits = 3 (3 measured)
latency change    = 0.00179692
throughput change = 0.0304054
Class 0:
Packet latency average = 19.6557
	minimum = 7
	maximum = 41
Network latency average = 19.6557
	minimum = 7
	maximum = 41
Slowest packet = 14207
Flit latency average = 19.676
	minimum = 7
	maximum = 41
Slowest flit = 14207
Fragmentation average = 0
	minimum = 0
	maximum = 0
Injected packet rate average = 0.00951562
	minimum = 0.00725 (at node 1)
	maximum = 0.01175 (at node 0)
Accepted packet rate average = 0.0095
	minimum = 0.00775 (at node 5)
	maximum = 0.01175 (at node 8)
Injected flit rate average = 0.00951562
	minimum = 0.00725 (at node 1)
	maximum = 0.01175 (at node 0)
Accepted flit rate average= 0.0095
	minimum = 0.00775 (at node 5)
	maximum = 0.01175 (at node 8)
Injected packet length average = 1
Accepted packet length average = 1
Total in-flight flits = 2 (2 measured)
latency change    = 0.00660722
throughput change = 0.0263158
Draining all recorded packets ...
Draining remaining packets ...
Time taken is 7028 cycles
Class 0:
Packet latency average = 19.1742
	minimum = 7
	maximum = 37
Network latency average = 19.1742
	minimum = 7
	maximum = 37
Slowest packet = 14690
Flit latency average = 19.1742
	minimum = 7
	maximum = 37
Slowest flit = 14690
Fragmentation average = 0
	minimum = 0
	maximum = 0
Injected packet rate average = 0.011375
	minimum = 0.006 (at node 9)
	maximum = 0.023 (at node 7)
Accepted packet rate average = 0.011125
	minimum = 0.005 (at node 6)
	maximum = 0.022 (at node 15)
Injected flit rate average = 0.011375
	minimum = 0.006 (at node 9)
	maximum = 0.023 (at node 7)
Accepted flit rate average= 0.011125
	minimum = 0.005 (at node 6)
	maximum = 0.022 (at node 15)
Injected packet length average = 1
Accepted packet length average = 1
Total in-flight flits = 4 (0 measured)
latency change    = 1
throughput change = 1
Class 0:
Packet latency average = 19.8552
[...]
Slowest flit = 115114
Fragmentation average = 0
	minimum = 0
	maximum = 0
Injected packet rate average = 0.0109375
	minimum = 0.006 (at node 0)
	maximum = 0.022 (at node 14)
Accepted packet rate average = 0.010625
	minimum = 0.005 (at node 7)
	maximum = 0.016 (at node 3)
Injected flit rate average = 0.0109375
	minimum = 0.006 (at node 0)
	maximum = 0.022 (at node 14)
Accepted flit rate average= 0.010625
	minimum = 0.005 (at node 7)
	maximum = 0.016 (at node 3)
Injected packet length average = 1
Accepted packet length average = 1
Total in-flight flits = 5 (0 measured)
latency change    = 1
throughput change = 1
Class 0:
Packet latency average = 19.6296
	minimum = 7
	maximum = 37
Network latency average = 19.6296
	minimum = 7
	maximum = 37
Slowest packet = 115114
Flit latency average = 19.6296
	minimum = 7
	maximum = 37
Slowest flit = 115114
Fragmentation average = 0
	minimum = 0
	maximum = 0
Injected packet rate average = 0.0102813
	minimum = 0.006 (at node 0)
	maximum = 0.0135 (at node 14)
Accepted packet rate average = 0.010125
	minimum = 0.006 (at node 7)
	maximum = 0.0135 (at node 6)
Injected flit rate average = 0.0102813
	minimum = 0.006 (at node 0)
	maximum = 0.0135 (at node 14)
Accepted flit rate average= 0.010125
	minimum = 0.006 (at node 7)
	maximum = 0.0135 (at node 6)
Injected packet length average = 1
Accepted packet length average = 1
Total in-flight flits = 5 (0 measured)
latency change    = 0.0383685
throughput change = 0.0493827
Class 0:
Packet latency average = 19.2988
	minimum = 7
	maximum = 37
Network latency average = 19.2988
	minimum = 7
	maximum = 37
Slowest packet = 115373
Flit latency average = 19.2988
	minimum = 7
	maximum = 37
Slowest flit = 115373
Fragmentation average = 0
	minimum = 0
	maximum = 0
Injected packet rate average = 0.0101875
	minimum = 0.003 (at node 14)
	maximum = 0.019 (at node 0)
Accepted packet rate average = 0.01025
	minimum = 0.006 (at node 8)
	maximum = 0.014 (at node 0)
Injected flit rate average = 0.0101875
	minimum = 0.003 (at node 14)
	maximum = 0.019 (at node 0)
Accepted flit rate average= 0.01025
	minimum = 0.006 (at node 8)
	maximum = 0.014 (at node 0)
Injected packet length average = 1
Accepted packet length average = 1
Total in-flight flits = 4 (0 measured)
latency change    = 0.0171435
throughput change = 0.0121951
Warmed up ...Time used is 3000 cycles
Class 0:
Packet latency average = 20.0116
	minimum = 7
	maximum = 42
Network latency average = 20.0116
	minimum = 7
	maximum = 42
Slowest packet = 115649
Flit latency average = 20.1136
	minimum = 7
	maximum = 42
Slowest flit = 115649
Fragmentation average = 0
	minimum = 0
	maximum = 0
Injected packet rate average = 0.011
	minimum = 0.006 (at node 6)
	maximum = 0.015 (at node 1)
Accepted packet rate average = 0.011
	minimum = 0.006 (at node 14)
	maximum = 0.017 (at node 11)
Injected flit rate average = 0.011
	minimum = 0.006 (at node 6)
	maximum = 0.015 (at node 1)
Accepted flit rate average= 0.011
	minimum = 0.006 (at node 14)
	maximum = 0.017 (at node 11)
Injected packet length average = 1
Accepted packet length average = 1
Total in-flight flits = 4 (4 measured)
latency change    = 0.0356217
throughput change = 0.0681818
Class 0:
Packet latency average = 19.7909
	minimum = 7
	maximum = 42
Network latency average = 19.7909
	minimum = 7
	maximum = 42
Slowest packet = 115649
Flit latency average = 19.8473
	minimum = 7
	maximum = 42
Slowest flit = 115649
Fragmentation average = 0
	minimum = 0
	maximum = 0
Injected packet rate average = 0.010375
	minimum = 0.008 (at node 11)
	maximum = 0.015 (at node 12)
Accepted packet rate average = 0.0104375
	minimum = 0.006 (at node 14)
	maximum = 0.0145 (at node 11)
Injected flit rate average = 0.010375
	minimum = 0.008 (at node 11)
	maximum = 0.015 (at node 12)
Accepted flit rate average= 0.0104375
	minimum = 0.006 (at node 14)
	maximum = 0.0145 (at node 11)
Injected packet length average = 1
Accepted packet length average = 1
Total in-flight flits = 2 (2 measured)
latency change    = 0.0111525
throughput change = 0.0538922
Class 0:
Packet latency average = 19.813
	minimum = 7
	maximum = 42
Network latency average = 19.813
	minimum = 7
	maximum = 42
Slowest packet = 115649
Flit latency average = 19.8521
	minimum = 7
	maximum = 42
Slowest flit = 115649
Fragmentation average = 0
	minimum = 0
	maximum = 0
Injected packet rate average = 0.00995833
	minimum = 0.008 (at node 3)
	maximum = 0.0133333 (at node 5)
Accepted packet rate average = 0.01
	minimum = 0.006 (at node 14)
	maximum = 0.0126667 (at node 4)
Injected flit rate average = 0.00995833
	minimum = 0.008 (at node 3)
	maximum = 0.0133333 (at node 5)
Accepted flit rate average= 0.01
	minimum = 0.006 (at node 14)
	maximum = 0.0126667 (at node 4)
Injected packet length average = 1
Accepted packet length average = 1
Total in-flight flits = 2 (2 measured)
latency change    = 0.00111624
throughput change = 0.04375
Class 0:
Packet latency average = 19.8669
	minimum = 7
	maximum = 42
Network latency average = 19.8669
	minimum = 7
	maximum = 42
Slowest packet = 115649
Flit latency average = 19.8968
	minimum = 7
	maximum = 42
Slowest flit = 115649
Fragmentation average = 0
	minimum = 0
	maximum = 0
Injected packet rate average = 0.00967187
	minimum = 0.0075 (at node 11)
	maximum = 0.01175 (at node 5)
Accepted packet rate average = 0.0096875
	minimum = 0.0065 (at node 14)
	maximum = 0.01125 (at node 4)
Injected flit rate average = 0.00967187
	minimum = 0.0075 (at node 11)
	maximum = 0.01175 (at node 5)
Accepted flit rate average= 0.0096875
	minimum = 0.0065 (at node 14)
	maximum = 0.01125 (at node 4)
Injected packet length average = 1
Accepted packet length average = 1
Total in-flight flits = 3 (3 measured)
latency change    = 0.00271094
throughput change = 0.0322581
Class 0:
Packet latency average = 20.1763
	minimum = 7
	maximum = 42
Network latency average = 20.1763
	minimum = 7
	maximum = 42
Slowest packet = 115649
Flit latency average = 20.1985
	minimum = 7
	maximum = 42
Slowest flit = 115649
Fragmentation average = 0
	minimum = 0
	maximum = 0
Injected packet rate average = 0.00975
	minimum = 0.0076 (at node 1)
	maximum = 0.0114 (at node 0)
Accepted packet rate average = 0.0097625
	minimum = 0.0076 (at node 14)
	maximum = 0.0124 (at node 8)
Injected flit rate average = 0.00975
	minimum = 0.0076 (at node 1)
	maximum = 0.0114 (at node 0)
Accepted flit rate average= 0.0097625
	minimum = 0.0076 (at node 14)
	maximum = 0.0124 (at node 8)
Injected packet length average = 1
Accepted packet length average = 1
Total in-flight flits = 3 (3 measured)
latency change    = 0.0153366
throughput change = 0.00768246
Draining all recorded packets ...
Draining remaining packets ...
Time taken is 8024 cycles
Class 0:
Packet latency average = 19.5809
	minimum = 7
	maximum = 37
Network latency average = 19.5809
	minimum = 7
	maximum = 37
Slowest packet = 116294
Flit latency average = 19.5809
	minimum = 7
	maximum = 37
Slowest flit = 116294
Fragmentation average = 0
	minimum = 0
	maximum = 0
Injected packet rate average = 0.008625
	minimum = 0.003 (at node 12)
	maximum = 0.014 (at node 11)
Accepted packet rate average = 0.0085
	minimum = 0.005 (at node 11)
	maximum = 0.014 (at node 12)
Injected flit rate average = 0.008625
	minimum = 0.003 (at node 12)
	maximum = 0.014 (at node 11)
Accepted flit rate average= 0.0085
	minimum = 0.005 (at node 11)
	maximum = 0.014 (at node 12)
Injected packet length average = 1
Accepted packet length average = 1
Total in-flight flits = 2 (0 measured)
latency change    = 1
throughput change = 1
Class 0:
Packet latency average = 19.7456
	minimum = 7
	maximum = 37
Network latency average = 19.7456
	minimum = 7
	maximum = 37
Slowest packet = 116294
Flit latency average = 19.7456
	minimum = 7
	maximum = 37
Slowest flit = 116294
Fragmentation average = 0
	minimum = 0
	maximum = 0
Injected packet rate average = 0.0089375
	minimum = 0.006 (at node 5)
	maximum = 0.0125 (at node 11)
Accepted packet rate average = 0.00884375
	minimum = 0.005 (at node 4)
	maximum = 0.012 (at node 12)
Injected flit rate average = 0.0089375
	minimum = 0.006 (at node 5)
	maximum = 0.0125 (at node 11)
Accepted flit rate average= 0.00884375
	minimum = 0.005 (at node 4)
	maximum = 0.012 (at node 12)
Injected packet length average = 1
Accepted packet length average = 1
Total in-flight flits = 3 (0 measured)
latency change    = 0.00834114
throughput change = 0.0388693
Class 0:
Packet latency average = 20.039
	minimum = 7
	maximum = 37
Network latency average = 20.039
	minimum = 7
	maximum = 37
Slowest packet = 116594
Flit latency average = 20.039
	minimum = 7
	maximum = 37
Slowest flit = 116594
Fragmentation average = 0
	minimum = 0
	maximum = 0
Injected packet rate average = 0.0095625
	minimum = 0.003 (at node 9)
	maximum = 0.014 (at node 0)
Accepted packet rate average = 0.009625
	minimum = 0.006 (at node 10)
	maximum = 0.014 (at node 3)
Injected flit rate average = 0.0095625
	minimum = 0.003 (at node 9)
	maximum = 0.014 (at node 0)
Accepted flit rate average= 0.009625
	minimum = 0.006 (at node 10)
	maximum = 0.014 (at node 3)
Injected packet length average = 1
Accepted packet length average = 1
Total in-flight flits = 2 (0 measured)
latency change    = 0.0146404
throughput change = 0.0811688
Warmed up ...Time used is 3000 cycles
Class 0:
Packet latency average = 19.4881
	minimum = 7
	maximum = 36
Network latency average = 19.4881
	minimum = 7
	maximum = 36
Slowest packet = 116771
Flit latency average = 19.5765
	minimum = 7
	maximum = 36
Slowest flit = 116771
Fragmentation average = 0
	minimum = 0
	maximum = 0
Injected packet rate average = 0.010625
	minimum = 0.005 (at node 3)
	maximum = 0.02 (at node 9)
Accepted packet rate average = 0.010625
	minimum = 0.003 (at node 4)
	maximum = 0.015 (at node 13)
Injected flit rate average = 0.010625
	minimum = 0.005 (at node 3)
	maximum = 0.02 (at node 9)
Accepted flit rate average= 0.010625
	minimum = 0.003 (at node 4)
	maximum = 0.015 (at node 13)
Injected packet length average = 1
Accepted packet length average = 1
Total in-flight flits = 2 (2 measured)
latency change    = 0.0282668
throughput change = 0.0941176
Class 0:
Packet latency average = 19.0963
	minimum = 7
	maximum = 37
Network latency average = 19.0963
	minimum = 7
	maximum = 37
Slowest packet = 116882
Flit latency average = 19.1451
	minimum = 7
	maximum = 37
Slowest flit = 116882
Fragmentation average = 0
	minimum = 0
	maximum = 0
Injected packet rate average = 0.0101563
	minimum = 0.0045 (at node 8)
	maximum = 0.0145 (at node 1)
Accepted packet rate average = 0.010125
	minimum = 0.0055 (at node 6)
	maximum = 0.0125 (at node 1)
Injected flit rate average = 0.0101563
	minimum = 0.0045 (at node 8)
	maximum = 0.0145 (at node 1)
Accepted flit rate average= 0.010125
	minimum = 0.0055 (at node 6)
	maximum = 0.0125 (at node 1)
Injected packet length average = 1
Accepted packet length average = 1
Total in-flight flits = 3 (3 measured)
latency change    = 0.0205182
throughput change = 0.0493827
Class 0:
Packet latency average = 19.7172
	minimum = 7
	maximum = 39
Network latency average = 19.7172
	minimum = 7
	maximum = 39
Slowest packet = 117139
Flit latency average = 19.7465
	minimum = 7
	maximum = 39
Slowest flit = 117139
Fragmentation average = 0
	minimum = 0
	maximum = 0
Injected packet rate average = 0.0103542
	minimum = 0.006 (at node 4)
	maximum = 0.0136667 (at node 1)
Accepted packet rate average = 0.0103542
	minimum = 0.00666667 (at node 6)
	maximum = 0.0123333 (at node 3)
Injected flit rate average = 0.0103542
	minimum = 0.006 (at node 4)
	maximum = 0.0136667 (at node 1)
Accepted flit rate average= 0.0103542
	minimum = 0.00666667 (at node 6)
	maximum = 0.0123333 (at node 3)
Injected packet length average = 1
Accepted packet length average = 1
Total in-flight flits = 2 (2 measured)
latency change    = 0.0314902
throughput change = 0.0221328
Class 0:
Packet latency average = 19.6955
	minimum = 7
	maximum = 39
Network latency average = 19.6955
	minimum = 7
	maximum = 39
Slowest packet = 117139
Flit latency average = 19.7175
	minimum = 7
	maximum = 39
Slowest flit = 117139
Fragmentation average = 0
	minimum = 0
	maximum = 0
Injected packet rate average = 0.0103594
	minimum = 0.00575 (at node 4)
	maximum = 0.013 (at node 1)
Accepted packet rate average = 0.0103438
	minimum = 0.008 (at node 2)
	maximum = 0.012 (at node 3)
Injected flit rate average = 0.0103594
	minimum = 0.00575 (at node 4)
	maximum = 0.013 (at node 1)
Accepted flit rate average= 0.0103438
	minimum = 0.008 (at node 2)
	maximum = 0.012 (at node 3)
Injected packet length average = 1
Accepted packet length average = 1
Total in-flight flits = 3 (3 measured)
latency change    = 0.00110265
throughput change = 0.00100705
Draining all recorded packets ...
Draining remaining packets ...
Time taken is 7047 cycles
Class 0:
Packet latency average = 20.325
	minimum = 7
	maximum = 37
Network latency average = 20.325
	minimum = 7
	maximum = 37
Slowest packet = 117385
Flit latency average = 20.325
	minimum = 7
	maximum = 37
Slowest flit = 117385
Fragmentation average = 0
	minimum = 0
	maximum = 0
Injected packet rate average = 0.01025
	minimum = 0.006 (at node 1)
	maximum = 0.019 (at node 8)
Accepted packet rate average = 0.01
	minimum = 0.004 (at node 6)
	maximum = 0.016 (at node 9)
Injected flit rate average = 0.01025
	minimum = 0.006 (at node 1)
	maximum = 0.019 (at node 8)
Accepted flit rate average= 0.01
	minimum = 0.004 (at node 6)
	maximum = 0.016 (at node 9)
Injected packet length average = 1
Accepted packet length average = 1
Total in-flight flits = 4 (0 measured)
latency change    = 1
throughput change = 1
Class 0:
Packet latency average = 20.261
	minimum = 7
	maximum = 37
Network latency average = 20.261
	minimum = 7
	maximum = 37
Slowest packet = 117385
Flit latency average = 20.261
	minimum = 7
	maximum = 37
Slowest flit = 117385
Fragmentation average = 0
	minimum = 0
	maximum = 0
Injected packet rate average = 0.00996875
	minimum = 0.0065 (at node 1)
	maximum = 0.0165 (at node 8)
Accepted packet rate average = 0.0099375
	minimum = 0.0075 (at node 6)
	maximum = 0.014 (at node 9)
Injected flit rate average = 0.00996875
	minimum = 0.0065 (at node 1)
	maximum = 0.0165 (at node 8)
Accepted flit rate average= 0.0099375
	minimum = 0.0075 (at node 6)
	maximum = 0.014 (at node 9)
Injected packet length average = 1
Accepted packet length average = 1
Total in-flight flits = 1 (0 measured)
latency change    = 0.00315847
throughput change = 0.00628931
Class 0:
Packet latency average = 19.5155
	minimum = 7
	maximum = 37
Network latency average = 19.5155
	minimum = 7
	maximum = 37
Slowest packet = 117734
Flit latency average = 19.5155
	minimum = 7
	maximum = 37
Slowest flit = 117734
Fragmentation average = 0
	minimum = 0
	maximum = 0
Injected packet rate average = 0.0100625
	minimum = 0.003 (at node 4)
	maximum = 0.016 (at node 15)
Accepted packet rate average = 0.0100625
	minimum = 0.006 (at node 2)
	maximum = 0.015 (at node 9)
Injected flit rate average = 0.0100625
	minimum = 0.003 (at node 4)
	maximum = 0.016 (at node 15)
Accepted flit rate average= 0.0100625
	minimum = 0.006 (at node 2)
	maximum = 0.015 (at node 9)
Injected packet length average = 1
Accepted packet length average = 1
Total in-flight flits = 1 (0 measured)
latency change    = 0.0381992
throughput change = 0.0124224
Warmed up ...Time used is 3000 cycles
Class 0:
Packet latency average = 20.2692
	minimum = 7
	maximum = 39
Network latency average = 20.2692
	minimum = 7
	maximum = 39
Slowest packet = 117994
Flit latency average = 20.224
	minimum = 7
	maximum = 39
Slowest flit = 117994
Fragmentation average = 0
	minimum = 0
	maximum = 0
Injected packet rate average = 0.0116875
	minimum = 0.005 (at node 5)
	maximum = 0.019 (at node 13)
Accepted packet rate average = 0.0114375
	minimum = 0.006 (at node 15)
	maximum = 0.016 (at node 7)
Injected flit rate average = 0.0116875
	minimum = 0.005 (at node 5)
	maximum = 0.019 (at node 13)
Accepted flit rate average= 0.0114375
	minimum = 0.006 (at node 15)
	maximum = 0.016 (at node 7)
Injected packet length average = 1
Accepted packet length average = 1
Total in-flight flits = 5 (5 measured)
latency change    = 0.0371846
throughput change = 0.120219
Class 0:
Packet latency average = 20.0341
	minimum = 7
	maximum = 42
Network latency average = 20.0341
	minimum = 7
	maximum = 42
Slowest packet = 118197
Flit latency average = 20.0113
	minimum = 7
	maximum = 42
Slowest flit = 118197
Fragmentation average = 0
	minimum = 0
	maximum = 0
Injected packet rate average = 0.0110312
	minimum = 0.007 (at node 12)
	maximum = 0.017 (at node 13)
Accepted packet rate average = 0.0110312
	minimum = 0.005 (at node 15)
	maximum = 0.016 (at node 0)
Injected flit rate average = 0.0110312
	minimum = 0.007 (at node 12)
	maximum = 0.017 (at node 13)
Accepted flit rate average= 0.0110312
	minimum = 0.005 (at node 15)
	maximum = 0.016 (at node 0)
Injected packet length average = 1
Accepted packet length average = 1
Total in-flight flits = 1 (1 measured)
latency change    = 0.011737
throughput change = 0.0368272
Class 0:
Packet latency average = 19.3915
	minimum = 7
	maximum = 42
Network latency average = 19.3915
	minimum = 7
	maximum = 42
Slowest packet = 118197
Flit latency average = 19.3772
	minimum = 7
	maximum = 42
Slowest flit = 118197
Fragmentation average = 0
	minimum = 0
	maximum = 0
Injected packet rate average = 0.0108125
	minimum = 0.00766667 (at node 12)
	maximum = 0.0136667 (at node 9)
Accepted packet rate average = 0.0107708
	minimum = 0.00533333 (at node 15)
	maximum = 0.0133333 (at node 7)
Injected flit rate average = 0.0108125
	minimum = 0.00766667 (at node 12)
	maximum = 0.0136667 (at node 9)
Accepted flit rate average= 0.0107708
	minimum = 0.00533333 (at node 15)
	maximum = 0.0133333 (at node 7)
Injected packet length average = 1
Accepted packet length average = 1
Total in-flight flits = 3 (3 measured)
latency change    = 0.0331392
throughput change = 0.0241779
Class 0:
Packet latency average = 19.6529
	minimum = 7
	maximum = 42
Network latency average = 19.6529
	minimum = 7
	maximum = 42
Slowest packet = 118197
Flit latency average = 19.6416
	minimum = 7
	maximum = 42
Slowest flit = 118197
Fragmentation average = 0
	minimum = 0
	maximum = 0
Injected packet rate average = 0.010625
	minimum = 0.00775 (at node 12)
	maximum = 0.013 (at node 14)
Accepted packet rate average = 0.0105938
	minimum = 0.00675 (at node 15)
	maximum = 0.01275 (at node 0)
Injected flit rate average = 0.010625
	minimum = 0.00775 (at node 12)
	maximum = 0.013 (at node 14)
Accepted flit rate average= 0.0105938
	minimum = 0.00675 (at node 15)
	maximum = 0.01275 (at node 0)
Injected packet length average = 1
Accepted packet length average = 1
Total in-flight flits = 3 (3 measured)
latency change    = 0.0133012
throughput change = 0.0167158
Draining all recorded packets ...
Draining remaining packets ...
Time taken is 7008 cycles
====== Overall Traffic Statistics ======
====== Traffic class 0 ======
Packet latency average = 19.6912 (100 samples)
	minimum = 7 (100 samples)
	maximum = 43.55 (100 samples)
Network latency average = 19.6912 (100 samples)
	minimum = 7 (100 samples)
	maximum = 43.55 (100 samples)
Flit latency average = 19.704 (100 samples)
	minimum = 7 (100 samples)
	maximum = 43.56 (100 samples)
Fragmentation average = 0 (100 samples)
	minimum = 0 (100 samples)
	maximum = 0 (100 samples)
Injected packet rate average = 0.00999394 (100 samples)
	minimum = 0.00741283 (100 samples)
	maximum = 0.012768 (100 samples)
Accepted packet rate average = 0.00999009 (100 samples)
	minimum = 0.00740167 (100 samples)
	maximum = 0.0128018 (100 samples)
Injected flit rate average = 0.00999394 (100 samples)
	minimum = 0.00741283 (100 samples)
	maximum = 0.012768 (100 samples)
Accepted flit rate average = 0.00999009 (100 samples)
	minimum = 0.00740167 (100 samples)
	maximum = 0.0128018 (100 samples)
Injected packet size average = 1 (100 samples)
Accepted packet size average = 1 (100 samples)
Hops average = 3.49452 (100 samples)
Total run time 4.46566
