BEGIN Configuration File: /tmp/bs_1138183_488669.cfg
topology = mesh;
k = 4;
n = 2;
routing_function = valiant;
num_vcs = 4;
vc_buf_size = 4;
wait_for_tail_credit = 1;
vc_allocator = islip;
sw_allocator = islip;
alloc_iters = 1;
credit_delay = 2;
routing_delay = 1;
vc_alloc_delay = 1;
sw_alloc_delay = 1;
input_speedup = 2;
output_speedup = 1;
internal_speedup = 1.0;
traffic = uniform;
packet_size = 1;
sim_type = latency;
injection_rate = 0.1;
warmup_periods = 3;
sample_period = 1000;
sim_count = 100;
seed = 1;

END Configuration File: /tmp/bs_1138183_488669.cfg
Class 0:
Packet latency average = 39.7986
	minimum = 7
	maximum = 149
Network latency average = 39.7294
	minimum = 7
	maximum = 149
Slowest packet = 1121
Flit latency average = 39.7294
	minimum = 7
	maximum = 149
Slowest flit = 1121
Fragmentation average = 0
	minimum = 0
	maximum = 0
Injected packet rate average = 0.101437
	minimum = 0.074 (at node 8)
	maximum = 0.117 (at node 1)
Accepted packet rate average = 0.098375
	minimum = 0.079 (at node 5)
	maximum = 0.116 (at node 2)
Injected flit rate average = 0.101437
	minimum = 0.074 (at node 8)
	maximum = 0.117 (at node 1)
Accepted flit rate average= 0.098375
	minimum = 0.079 (at node 5)
	maximum = 0.116 (at node 2)
Injected packet length average = 1
Accepted packet length average = 1
Total in-flight flits = 49 (0 measured)
latency change    = 1
throughput change = 1
Class 0:
Packet latency average = 40.1541
	minimum = 7
	maximum = 169
Network latency average = 40.0395
	minimum = 7
	maximum = 169
Slowest packet = 2724
Flit latency average = 40.0395
	minimum = 7
	maximum = 169
Slowest flit = 2724
Fragmentation average = 0
	minimum = 0
	maximum = 0
Injected packet rate average = 0.100875
	minimum = 0.092 (at node 14)
	maximum = 0.1175 (at node 6)
Accepted packet rate average = 0.0989687
	minimum = 0.085 (at node 12)
	maximum = 0.1135 (at node 2)
Injected flit rate average = 0.100875
	minimum = 0.092 (at node 14)
	maximum = 0.1175 (at node 6)
Accepted flit rate average= 0.0989687
	minimum = 0.085 (at node 12)
	maximum = 0.1135 (at node 2)
Injected packet length average = 1
Accepted packet length average = 1
Total in-flight flits = 61 (0 measured)
latency change    = 0.00885306
throughput change = 0.00599937
Class 0:
Packet latency average = 41.719
	minimum = 7
	maximum = 143
Network latency average = 41.6461
	minimum = 7
	maximum = 143
Slowest packet = 3862
Flit latency average = 41.6461
	minimum = 7
	maximum = 143
Slowest flit = 3862
Fragmentation average = 0
	minimum = 0
	maximum = 0
Injected packet rate average = 0.100375
	minimum = 0.085 (at node 0)
	maximum = 0.117 (at node 6)
Accepted packet rate average = 0.100312
	minimum = 0.085 (at node 7)
	maximum = 0.122 (at node 15)
Injected flit rate average = 0.100375
	minimum = 0.085 (at node 0)
	maximum = 0.117 (at node 6)
Accepted flit rate average= 0.100312
	minimum = 0.085 (at node 7)
	maximum = 0.122 (at node 15)
Injected packet length average = 1
Accepted packet length average = 1
Total in-flight flits = 62 (0 measured)
latency change    = 0.0375108
throughput change = 0.0133956
Warmed up ...Time used is 3000 cycles
Class 0:
Packet latency average = 38.161
	minimum = 7
	maximum = 111
Network latency average = 38.142
	minimum = 7
	maximum = 106
Slowest packet = 6113
Flit latency average = 38.4358
	minimum = 7
	maximum = 106
Slowest flit = 6113
Fragmentation average = 0
	minimum = 0
	maximum = 0
Injected packet rate average = 0.099625
	minimum = 0.077 (at node 0)
	maximum = 0.12 (at node 5)
Accepted packet rate average = 0.099375
	minimum = 0.081 (at node 13)
	maximum = 0.129 (at node 5)
Injected flit rate average = 0.099625
	minimum = 0.077 (at node 0)
	maximum = 0.12 (at node 5)
Accepted flit rate average= 0.099375
	minimum = 0.081 (at node 13)
	maximum = 0.129 (at node 5)
Injected packet length average = 1
Accepted packet length average = 1
Total in-flight flits = 66 (66 measured)
latency change    = 0.0932368
throughput change = 0.00943396
Class 0:
Packet latency average = 38.6651
	minimum = 7
	maximum = 152
Network latency average = 38.5929
	minimum = 7
	maximum = 152
Slowest packet = 7797
Flit latency average = 38.7293
	minimum = 7
	maximum = 152
Slowest flit = 7797
Fragmentation average = 0
	minimum = 0
	maximum = 0
Injected packet rate average = 0.100906
	minimum = 0.0875 (at node 0)
	maximum = 0.113 (at node 1)
Accepted packet rate average = 0.100656
	minimum = 0.084 (at node 8)
	maximum = 0.1155 (at node 5)
Injected flit rate average = 0.100906
	minimum = 0.0875 (at node 0)
	maximum = 0.113 (at node 1)
Accepted flit rate average= 0.100656
	minimum = 0.084 (at node 8)
	maximum = 0.1155 (at node 5)
Injected packet length average = 1
Accepted packet length average = 1
Total in-flight flits = 71 (71 measured)
latency change    = 0.0130373
throughput change = 0.012729
Class 0:
Packet latency average = 40.32
	minimum = 7
	maximum = 172
Network latency average = 40.1658
	minimum = 7
	maximum = 172
Slowest packet = 7800
Flit latency average = 40.2362
	minimum = 7
	maximum = 172
Slowest flit = 7800
Fragmentation average = 0
	minimum = 0
	maximum = 0
Injected packet rate average = 0.101042
	minimum = 0.091 (at node 0)
	maximum = 0.111667 (at node 5)
Accepted packet rate average = 0.101083
	minimum = 0.0863333 (at node 8)
	maximum = 0.106667 (at node 5)
Injected flit rate average = 0.101042
	minimum = 0.091 (at node 0)
	maximum = 0.111667 (at node 5)
Accepted flit rate average= 0.101083
	minimum = 0.0863333 (at node 8)
	maximum = 0.106667 (at node 5)
Injected packet length average = 1
Accepted packet length average = 1
Total in-flight flits = 60 (60 measured)
latency change    = 0.0410455
throughput change = 0.00422506
Class 0:
Packet latency average = 40.1818
	minimum = 7
	maximum = 172
Network latency average = 40.0589
	minimum = 7
	maximum = 172
Slowest packet = 7800
Flit latency average = 40.1127
	minimum = 7
	maximum = 172
Slowest flit = 7800
Fragmentation average = 0
	minimum = 0
	maximum = 0
Injected packet rate average = 0.100844
	minimum = 0.09475 (at node 10)
	maximum = 0.10875 (at node 2)
Accepted packet rate average = 0.101031
	minimum = 0.0885 (at node 8)
	maximum = 0.1065 (at node 12)
Injected flit rate average = 0.100844
	minimum = 0.09475 (at node 10)
	maximum = 0.10875 (at node 2)
Accepted flit rate average= 0.101031
	minimum = 0.0885 (at node 8)
	maximum = 0.1065 (at node 12)
Injected packet length average = 1
Accepted packet length average = 1
Total in-flight flits = 50 (50 measured)
latency change    = 0.00344137
throughput change = 0.000515517
Draining all recorded packets ...
Draining remaining packets ...
Time taken is 7104 cycles
Class 0:
Packet latency average = 37.9175
	minimum = 7
	maximum = 107
Network latency average = 37.8351
	minimum = 7
	maximum = 107
Slowest packet = 11484
Flit latency average = 37.8351
	minimum = 7
	maximum = 107
Slowest flit = 11484
Fragmentation average = 0
	minimum = 0
	maximum = 0
Injected packet rate average = 0.1
	minimum = 0.089 (at node 0)
	maximum = 0.119 (at node 4)
Accepted packet rate average = 0.09625
	minimum = 0.072 (at node 10)
	maximum = 0.114 (at node 3)
Injected flit rate average = 0.1
	minimum = 0.089 (at node 0)
	maximum = 0.119 (at node 4)
Accepted flit rate average= 0.09625
	minimum = 0.072 (at node 10)
	maximum = 0.114 (at node 3)
Injected packet length average = 1
Accepted packet length average = 1
Total in-flight flits = 60 (0 measured)
latency change    = 1
throughput change = 1
Class 0:
Packet latency average = 38.482
	minimum = 7
	maximum = 111
Network latency average = 38.4385
	minimum = 7
	maximum = 111
Slowest packet = 13856
Flit latency average = 38.4385
	minimum = 7
	maximum = 111
Slowest flit = 13856
Fragmentation average = 0
	minimum = 0
	maximum = 0
Injected packet rate average = 0.0987187
	minimum = 0.0915 (at node 10)
	maximum = 0.1065 (at node 2)
Accepted packet rate average = 0.097125
	minimum = 0.08 (at node 10)
	maximum = 0.111 (at node 7)
Injected flit rate average = 0.0987187
	minimum = 0.0915 (at node 10)
	maximum = 0.1065 (at node 2)
Accepted flit rate average= 0.097125
	minimum = 0.08 (at node 10)
	maximum = 0.111 (at node 7)
Injected packet length average = 1
Accepted packet length average = 1
Total in-flight flits = 51 (0 measured)
latency change    = 0.0146679
throughput change = 0.00900901
Class 0:
Packet latency average = 40.1035
	minimum = 7
	maximum = 118
Network latency average = 39.9546
	minimum = 7
	maximum = 118
Slowest packet = 15514
Flit latency average = 39.9546
	minimum = 7
	maximum = 118
Slowest flit = 15514
Fragmentation average = 0
	minimum = 0
	maximum = 0
Injected packet rate average = 0.099875
	minimum = 0.088 (at node 3)
	maximum = 0.117 (at node 14)
Accepted packet rate average = 0.0990625
	minimum = 0.089 (at node 10)
	maximum = 0.109 (at node 3)
Injected flit rate average = 0.099875
	minimum = 0.088 (at node 3)
	maximum = 0.117 (at node 14)
Accepted flit rate average= 0.0990625
	minimum = 0.089 (at node 10)
	maximum = 0.109 (at node 3)
Injected packet length average = 1
Accepted packet length average = 1
Total in-flight flits = 64 (0 measured)
latency change    = 0.0404326
throughput change = 0.0195584
Warmed up ...Time used is 3000 cycles
Class 0:
Packet latency average = 36.5671
	minimum = 7
	maximum = 90
Network latency average = 36.5644
	minimum = 7
	maximum = 90
Slowest packet = 16698
Flit latency average = 36.7909
	minimum = 7
	maximum = 90
Slowest flit = 16698
Fragmentation average = 0
	minimum = 0
	maximum = 0
Injected packet rate average = 0.0968125
	minimum = 0.085 (at node 11)
	maximum = 0.111 (at node 9)
Accepted packet rate average = 0.09625
	minimum = 0.076 (at node 1)
	maximum = 0.113 (at node 10)
Injected flit rate average = 0.0968125
	minimum = 0.085 (at node 11)
	maximum = 0.111 (at node 9)
Accepted flit rate average= 0.09625
	minimum = 0.076 (at node 1)
	maximum = 0.113 (at node 10)
Injected packet length average = 1
Accepted packet length average = 1
Total in-flight flits = 73 (73 measured)
latency change    = 0.0967099
throughput change = 0.0292208
Class 0:
Packet latency average = 38.1782
	minimum = 7
	maximum = 141
Network latency average = 38.1593
	minimum = 7
	maximum = 141
Slowest packet = 17717
Flit latency average = 38.2382
	minimum = 7
	maximum = 141
Slowest flit = 17717
Fragmentation average = 0
	minimum = 0
	maximum = 0
Injected packet rate average = 0.097375
	minimum = 0.085 (at node 11)
	maximum = 0.1165 (at node 4)
Accepted packet rate average = 0.09775
	minimum = 0.084 (at node 1)
	maximum = 0.1065 (at node 9)
Injected flit rate average = 0.097375
	minimum = 0.085 (at node 11)
	maximum = 0.1165 (at node 4)
Accepted flit rate average= 0.09775
	minimum = 0.084 (at node 1)
	maximum = 0.1065 (at node 9)
Injected packet length average = 1
Accepted packet length average = 1
Total in-flight flits = 52 (52 measured)
latency change    = 0.0422001
throughput change = 0.0153453
Class 0:
Packet latency average = 38.054
	minimum = 7
	maximum = 141
Network latency average = 38.0393
	minimum = 7
	maximum = 141
Slowest packet = 17717
Flit latency average = 38.0935
	minimum = 7
	maximum = 141
Slowest flit = 17717
Fragmentation average = 0
	minimum = 0
	maximum = 0
Injected packet rate average = 0.0977708
	minimum = 0.0886667 (at node 11)
	maximum = 0.109667 (at node 4)
Accepted packet rate average = 0.0978125
	minimum = 0.0903333 (at node 1)
	maximum = 0.107667 (at node 15)
Injected flit rate average = 0.0977708
	minimum = 0.0886667 (at node 11)
	maximum = 0.109667 (at node 4)
Accepted flit rate average= 0.0978125
	minimum = 0.0903333 (at node 1)
	maximum = 0.107667 (at node 15)
Injected packet length average = 1
Accepted packet length average = 1
Total in-flight flits = 63 (63 measured)
latency change    = 0.00326416
throughput change = 0.000638978
Class 0:
Packet latency average = 38.2253
	minimum = 7
	maximum = 141
Network latency average = 38.2088
	minimum = 7
	maximum = 141
Slowest packet = 17717
Flit latency average = 38.2478
	minimum = 7
	maximum = 141
Slowest flit = 17717
Fragmentation average = 0
	minimum = 0
	maximum = 0
Injected packet rate average = 0.0979219
	minimum = 0.09025 (at node 11)
	maximum = 0.10725 (at node 4)
Accepted packet rate average = 0.097625
	minimum = 0.092 (at node 1)
	maximum = 0.10325 (at node 15)
Injected flit rate average = 0.0979219
	minimum = 0.09025 (at node 11)
	maximum = 0.10725 (at node 4)
Accepted flit rate average= 0.097625
	minimum = 0.092 (at node 1)
	maximum = 0.10325 (at node 15)
Injected packet length average = 1
Accepted packet length average = 1
Total in-flight flits = 83 (83 measured)
latency change    = 0.00448067
throughput change = 0.00192061
Draining all recorded packets ...
Draining remaining packets ...
Time taken is 7130 cycles
Class 0:
Packet latency average = 39.4084
	minimum = 7
	maximum = 124
Network latency average = 39.3481
	minimum = 7
	maximum = 124
Slowest packet = 23253
Flit latency average = 39.3481
	minimum = 7
	maximum = 124
Slowest flit = 23253
Fragmentation average = 0
	minimum = 0
	maximum = 0
Injected packet rate average = 0.1005
	minimum = 0.084 (at node 15)
	maximum = 0.113 (at node 2)
Accepted packet rate average = 0.09625
	minimum = 0.081 (at node 11)
	maximum = 0.111 (at node 7)
Injected flit rate average = 0.1005
	minimum = 0.084 (at node 15)
	maximum = 0.113 (at node 2)
Accepted flit rate average= 0.09625
	minimum = 0.081 (at node 11)
	maximum = 0.111 (at node 7)
Injected packet length average = 1
Accepted packet length average = 1
Total in-flight flits = 68 (0 measured)
latency change    = 1
throughput change = 1
Class 0:
Packet latency average = 39.2455
	minimum = 7
	maximum = 124
Network latency average = 39.207
	minimum = 7
	maximum = 124
Slowest packet = 23253
Flit latency average = 39.207
	minimum = 7
	maximum = 124
Slowest flit = 23253
Fragmentation average = 0
	minimum = 0
	maximum = 0
Injected packet rate average = 0.1
	minimum = 0.0815 (at node 8)
	maximum = 0.12 (at node 2)
Accepted packet rate average = 0.098
	minimum = 0.086 (at node 11)
	maximum = 0.1075 (at node 3)
Injected flit rate average = 0.1
	minimum = 0.0815 (at node 8)
	maximum = 0.12 (at node 2)
Accepted flit rate average= 0.098
	minimum = 0.086 (at node 11)
	maximum = 0.1075 (at node 3)
Injected packet length average = 1
Accepted packet length average = 1
Total in-flight flits = 64 (0 measured)
latency change    = 0.00415094
throughput change = 0.0178571
Class 0:
Packet latency average = 38.9184
	minimum = 7
	maximum = 114
Network latency average = 38.9065
	minimum = 7
	maximum = 114
Slowest packet = 26413
Flit latency average = 38.9065
	minimum = 7
	maximum = 114
Slowest flit = 26413
Fragmentation average = 0
	minimum = 0
	maximum = 0
Injected packet rate average = 0.0994375
	minimum = 0.08 (at node 4)
	maximum = 0.113 (at node 15)
Accepted packet rate average = 0.099625
	minimum = 0.087 (at node 1)
	maximum = 0.111 (at node 4)
Injected flit rate average = 0.0994375
	minimum = 0.08 (at node 4)
	maximum = 0.113 (at node 15)
Accepted flit rate average= 0.099625
	minimum = 0.087 (at node 1)
	maximum = 0.111 (at node 4)
Injected packet length average = 1
Accepted packet length average = 1
Total in-flight flits = 61 (0 measured)
latency change    = 0.00840454
throughput change = 0.0163112
Warmed up ...Time used is 3000 cycles
Class 0:
Packet latency average = 40.9968
	minimum = 7
	maximum = 142
Network latency average = 40.9551
	minimum = 7
	maximum = 140
Slowest packet = 28540
Flit latency average = 41.393
	minimum = 7
	maximum = 140
Slowest flit = 28540
Fragmentation average = 0
	minimum = 0
	maximum = 0
Injected packet rate average = 0.1015
	minimum = 0.083 (at node 15)
	maximum = 0.12 (at node 7)
Accepted packet rate average = 0.101312
	minimum = 0.084 (at node 12)
	maximum = 0.116 (at node 4)
Injected flit rate average = 0.1015
	minimum = 0.083 (at node 15)
	maximum = 0.12 (at node 7)
Accepted flit rate average= 0.101312
	minimum = 0.084 (at node 12)
	maximum = 0.116 (at node 4)
Injected packet length average = 1
Accepted packet length average = 1
Total in-flight flits = 64 (64 measured)
latency change    = 0.0506954
throughput change = 0.0166564
Class 0:
Packet latency average = 40.4026
	minimum = 7
	maximum = 170
Network latency average = 40.3473
	minimum = 7
	maximum = 164
Slowest packet = 30135
Flit latency average = 40.5764
	minimum = 7
	maximum = 164
Slowest flit = 30135
Fragmentation average = 0
	minimum = 0
	maximum = 0
Injected packet rate average = 0.101656
	minimum = 0.0895 (at node 11)
	maximum = 0.1155 (at node 7)
Accepted packet rate average = 0.101875
	minimum = 0.0905 (at node 12)
	maximum = 0.11 (at node 4)
Injected flit rate average = 0.101656
	minimum = 0.0895 (at node 11)
	maximum = 0.1155 (at node 7)
Accepted flit rate average= 0.101875
	minimum = 0.0905 (at node 12)
	maximum = 0.11 (at node 4)
Injected packet length average = 1
Accepted packet length average = 1
Total in-flight flits = 54 (54 measured)
latency change    = 0.0147062
throughput change = 0.00552147
Class 0:
Packet latency average = 39.5058
	minimum = 7
	maximum = 170
Network latency average = 39.4666
	minimum = 7
	maximum = 164
Slowest packet = 30135
Flit latency average = 39.6342
	minimum = 7
	maximum = 164
Slowest flit = 30135
Fragmentation average = 0
	minimum = 0
	maximum = 0
Injected packet rate average = 0.0996667
	minimum = 0.088 (at node 3)
	maximum = 0.111667 (at node 7)
Accepted packet rate average = 0.0995
	minimum = 0.0926667 (at node 14)
	maximum = 0.105667 (at node 15)
Injected flit rate average = 0.0996667
	minimum = 0.088 (at node 3)
	maximum = 0.111667 (at node 7)
Accepted flit rate average= 0.0995
	minimum = 0.0926667 (at node 14)
	maximum = 0.105667 (at node 15)
Injected packet length average = 1
Accepted packet length average = 1
Total in-flight flits = 69 (69 measured)
latency change    = 0.0227003
throughput change = 0.0238693
Class 0:
Packet latency average = 39.7585
	minimum = 7
	maximum = 170
Network latency average = 39.7262
	minimum = 7
	maximum = 164
Slowest packet = 30135
Flit latency average = 39.8494
	minimum = 7
	maximum = 164
Slowest flit = 30135
Fragmentation average = 0
	minimum = 0
	maximum = 0
Injected packet rate average = 0.0996875
	minimum = 0.091 (at node 3)
	maximum = 0.11225 (at node 7)
Accepted packet rate average = 0.0995
	minimum = 0.09275 (at node 14)
	maximum = 0.10525 (at node 15)
Injected flit rate average = 0.0996875
	minimum = 0.091 (at node 3)
	maximum = 0.11225 (at node 7)
Accepted flit rate average= 0.0995
	minimum = 0.09275 (at node 14)
	maximum = 0.10525 (at node 15)
Injected packet length average = 1
Accepted packet length average = 1
Total in-flight flits = 74 (74 measured)
latency change    = 0.00635561
throughput change = 0
Draining all recorded packets ...
Draining remaining packets ...
Time taken is 7135 cycles
Class 0:
Packet latency average = 38.8039
	minimum = 7
	maximum = 105
Network latency average = 38.6639
	minimum = 7
	maximum = 105
Slowest packet = 34710
Flit latency average = 38.6639
	minimum = 7
	maximum = 105
Slowest flit = 34710
Fragmentation average = 0
	minimum = 0
	maximum = 0
Injected packet rate average = 0.102375
	minimum = 0.082 (at node 6)
	maximum = 0.127 (at node 10)
Accepted packet rate average = 0.0981875
	minimum = 0.083 (at node 10)
	maximum = 0.115 (at node 11)
Injected flit rate average = 0.102375
	minimum = 0.082 (at node 6)
	maximum = 0.127 (at node 10)
Accepted flit rate average= 0.0981875
	minimum = 0.083 (at node 10)
	maximum = 0.115 (at node 11)
Injected packet length average = 1
Accepted packet length average = 1
Total in-flight flits = 67 (0 measured)
latency change    = 1
throughput change = 1
Class 0:
Packet latency average = 39.2083
	minimum = 7
	maximum = 133
Network latency average = 39.0734
	minimum = 7
	maximum = 133
Slowest packet = 36424
Flit latency average = 39.0734
	minimum = 7
	maximum = 133
Slowest flit = 36424
Fragmentation average = 0
	minimum = 0
	maximum = 0
Injected packet rate average = 0.1005
	minimum = 0.0885 (at node 11)
	maximum = 0.1135 (at node 7)
Accepted packet rate average = 0.0987187
	minimum = 0.0835 (at node 8)
	maximum = 0.1115 (at node 13)
Injected flit rate average = 0.1005
	minimum = 0.0885 (at node 11)
	maximum = 0.1135 (at node 7)
Accepted flit rate average= 0.0987187
	minimum = 0.0835 (at node 8)
	maximum = 0.1115 (at node 13)
Injected packet length average = 1
Accepted packet length average = 1
Total in-flight flits = 57 (0 measured)
latency change    = 0.0103128
throughput change = 0.00538145
Class 0:
Packet latency average = 40.981
	minimum = 7
	maximum = 167
Network latency average = 40.5806
	minimum = 7
	maximum = 167
Slowest packet = 37939
Flit latency average = 40.5806
	minimum = 7
	maximum = 167
Slowest flit = 37939
Fragmentation average = 0
	minimum = 0
	maximum = 0
Injected packet rate average = 0.101688
	minimum = 0.091 (at node 0)
	maximum = 0.113 (at node 8)
Accepted packet rate average = 0.101938
	minimum = 0.087 (at node 6)
	maximum = 0.135 (at node 4)
Injected flit rate average = 0.101688
	minimum = 0.091 (at node 0)
	maximum = 0.113 (at node 8)
Accepted flit rate average= 0.101938
	minimum = 0.087 (at node 6)
	maximum = 0.135 (at node 4)
Injected packet length average = 1
Accepted packet length average = 1
Total in-flight flits = 53 (0 measured)
latency change    = 0.0432566
throughput change = 0.0315757
Warmed up ...Time used is 3000 cycles
Class 0:
Packet latency average = 37.4903
	minimum = 7
	maximum = 133
Network latency average = 37.4903
	minimum = 7
	maximum = 133
Slowest packet = 39790
Flit latency average = 37.7642
	minimum = 7
	maximum = 133
Slowest flit = 39790
Fragmentation average = 0
	minimum = 0
	maximum = 0
Injected packet rate average = 0.100375
	minimum = 0.087 (at node 3)
	maximum = 0.123 (at node 5)
Accepted packet rate average = 0.100437
	minimum = 0.087 (at node 0)
	maximum = 0.111 (at node 3)
Injected flit rate average = 0.100375
	minimum = 0.087 (at node 3)
	maximum = 0.123 (at node 5)
Accepted flit rate average= 0.100437
	minimum = 0.087 (at node 0)
	maximum = 0.111 (at node 3)
Injected packet length average = 1
Accepted packet length average = 1
Total in-flight flits = 52 (52 measured)
latency change    = 0.0931079
throughput change = 0.0149347
Class 0:
Packet latency average = 37.5721
	minimum = 7
	maximum = 147
Network latency average = 37.5701
	minimum = 7
	maximum = 147
Slowest packet = 41138
Flit latency average = 37.7077
	minimum = 7
	maximum = 147
Slowest flit = 41138
Fragmentation average = 0
	minimum = 0
	maximum = 0
Injected packet rate average = 0.098875
	minimum = 0.0835 (at node 2)
	maximum = 0.1265 (at node 10)
Accepted packet rate average = 0.099
	minimum = 0.091 (at node 0)
	maximum = 0.109 (at node 2)
Injected flit rate average = 0.098875
	minimum = 0.0835 (at node 2)
	maximum = 0.1265 (at node 10)
Accepted flit rate average= 0.099
	minimum = 0.091 (at node 0)
	maximum = 0.109 (at node 2)
Injected packet length average = 1
Accepted packet length average = 1
Total in-flight flits = 49 (49 measured)
latency change    = 0.0021751
throughput change = 0.0145202
Class 0:
Packet latency average = 38.6184
	minimum = 7
	maximum = 148
Network latency average = 38.473
	minimum = 7
	maximum = 148
Slowest packet = 42194
Flit latency average = 38.5535
	minimum = 7
	maximum = 148
Slowest flit = 42194
Fragmentation average = 0
	minimum = 0
	maximum = 0
Injected packet rate average = 0.10075
	minimum = 0.0873333 (at node 2)
	maximum = 0.120333 (at node 10)
Accepted packet rate average = 0.100417
	minimum = 0.094 (at node 5)
	maximum = 0.110333 (at node 11)
Injected flit rate average = 0.10075
	minimum = 0.0873333 (at node 2)
	maximum = 0.120333 (at node 10)
Accepted flit rate average= 0.100417
	minimum = 0.094 (at node 5)
	maximum = 0.110333 (at node 11)
Injected packet length average = 1
Accepted packet length average = 1
Total in-flight flits = 69 (69 measured)
latency change    = 0.0270945
throughput change = 0.0141079
Class 0:
Packet latency average = 38.7284
	minimum = 7
	maximum = 148
Network latency average = 38.6176
	minimum = 7
	maximum = 148
Slowest packet = 42194
Flit latency average = 38.6765
	minimum = 7
	maximum = 148
Slowest flit = 42194
Fragmentation average = 0
	minimum = 0
	maximum = 0
Injected packet rate average = 0.101203
	minimum = 0.09025 (at node 2)
	maximum = 0.11475 (at node 10)
Accepted packet rate average = 0.100859
	minimum = 0.09425 (at node 5)
	maximum = 0.11125 (at node 8)
Injected flit rate average = 0.101203
	minimum = 0.09025 (at node 2)
	maximum = 0.11475 (at node 10)
Accepted flit rate average= 0.100859
	minimum = 0.09425 (at node 5)
	maximum = 0.11125 (at node 8)
Injected packet length average = 1
Accepted packet length average = 1
Total in-flight flits = 75 (75 measured)
latency change    = 0.00283895
throughput change = 0.00438936
Draining all recorded packets ...
Draining remaining packets ...
Time taken is 7141 cycles
Class 0:
Packet latency average = 37.2346
	minimum = 7
	maximum = 113
Network latency average = 37.2172
	minimum = 7
	maximum = 113
Slowest packet = 45395
Flit latency average = 37.2172
	minimum = 7
	maximum = 113
Slowest flit = 45395
Fragmentation average = 0
	minimum = 0
	maximum = 0
Injected packet rate average = 0.0975
	minimum = 0.087 (at node 9)
	maximum = 0.116 (at node 8)
Accepted packet rate average = 0.09325
	minimum = 0.075 (at node 4)
	maximum = 0.12 (at node 2)
Injected flit rate average = 0.0975
	minimum = 0.087 (at node 9)
	maximum = 0.116 (at node 8)
Accepted flit rate average= 0.09325
	minimum = 0.075 (at node 4)
	maximum = 0.12 (at node 2)
Injected packet length average = 1
Accepted packet length average = 1
Total in-flight flits = 68 (0 measured)
latency change    = 1
throughput change = 1
Class 0:
Packet latency average = 41.9797
	minimum = 7
	maximum = 279
Network latency average = 40.633
	minimum = 7
	maximum = 279
Slowest packet = 46988
Flit latency average = 40.633
	minimum = 7
	maximum = 279
Slowest flit = 46988
Fragmentation average = 0
	minimum = 0
	maximum = 0
Injected packet rate average = 0.101688
	minimum = 0.092 (at node 9)
	maximum = 0.1135 (at node 8)
Accepted packet rate average = 0.0999687
	minimum = 0.0875 (at node 6)
	maximum = 0.113 (at node 5)
Injected flit rate average = 0.101688
	minimum = 0.092 (at node 9)
	maximum = 0.1135 (at node 8)
Accepted flit rate average= 0.0999687
	minimum = 0.0875 (at node 6)
	maximum = 0.113 (at node 5)
Injected packet length average = 1
Accepted packet length average = 1
Total in-flight flits = 55 (0 measured)
latency change    = 0.113033
throughput change = 0.0672085
Class 0:
Packet latency average = 38.4804
	minimum = 7
	maximum = 109
Network latency average = 38.4545
	minimum = 7
	maximum = 109
Slowest packet = 49492
Flit latency average = 38.4545
	minimum = 7
	maximum = 109
Slowest flit = 49492
Fragmentation average = 0
	minimum = 0
	maximum = 0
Injected packet rate average = 0.0998125
	minimum = 0.08 (at node 8)
	maximum = 0.121 (at node 3)
Accepted packet rate average = 0.098875
	minimum = 0.086 (at node 0)
	maximum = 0.108 (at node 6)
Injected flit rate average = 0.0998125
	minimum = 0.08 (at node 8)
	maximum = 0.121 (at node 3)
Accepted flit rate average= 0.098875
	minimum = 0.086 (at node 0)
	maximum = 0.108 (at node 6)
Injected packet length average = 1
Accepted packet length average = 1
Total in-flight flits = 70 (0 measured)
latency change    = 0.0909366
throughput change = 0.0110619
Warmed up ...Time used is 3000 cycles
Class 0:
Packet latency average = 39.2052
	minimum = 7
	maximum = 128
Network latency average = 39.1987
	minimum = 7
	maximum = 128
Slowest packet = 50718
Flit latency average = 39.2475
	minimum = 7
	maximum = 128
Slowest flit = 50718
Fragmentation average = 0
	minimum = 0
	maximum = 0
Injected packet rate average = 0.0986875
	minimum = 0.085 (at node 4)
	maximum = 0.115 (at node 11)
Accepted packet rate average = 0.1
	minimum = 0.082 (at node 13)
	maximum = 0.126 (at node 4)
Injected flit rate average = 0.0986875
	minimum = 0.085 (at node 4)
	maximum = 0.115 (at node 11)
Accepted flit rate average= 0.1
	minimum = 0.082 (at node 13)
	maximum = 0.126 (at node 4)
Injected packet length average = 1
Accepted packet length average = 1
Total in-flight flits = 49 (49 measured)
latency change    = 0.0184879
throughput change = 0.01125
Class 0:
Packet latency average = 38.9913
	minimum = 7
	maximum = 156
Network latency average = 38.9676
	minimum = 7
	maximum = 156
Slowest packet = 51942
Flit latency average = 38.9972
	minimum = 7
	maximum = 156
Slowest flit = 51942
Fragmentation average = 0
	minimum = 0
	maximum = 0
Injected packet rate average = 0.099375
	minimum = 0.088 (at node 2)
	maximum = 0.1155 (at node 11)
Accepted packet rate average = 0.0996563
	minimum = 0.0855 (at node 10)
	maximum = 0.1185 (at node 14)
Injected flit rate average = 0.099375
	minimum = 0.088 (at node 2)
	maximum = 0.1155 (at node 11)
Accepted flit rate average= 0.0996563
	minimum = 0.0855 (at node 10)
	maximum = 0.1185 (at node 14)
Injected packet length average = 1
Accepted packet length average = 1
Total in-flight flits = 61 (61 measured)
latency change    = 0.00548546
throughput change = 0.00344936
Class 0:
Packet latency average = 39.1897
	minimum = 7
	maximum = 156
Network latency average = 39.1454
	minimum = 7
	maximum = 156
Slowest packet = 51942
Flit latency average = 39.1624
	minimum = 7
	maximum = 156
Slowest flit = 51942
Fragmentation average = 0
	minimum = 0
	maximum = 0
Injected packet rate average = 0.0998542
	minimum = 0.091 (at node 2)
	maximum = 0.114667 (at node 11)
Accepted packet rate average = 0.100062
	minimum = 0.087 (at node 5)
	maximum = 0.119333 (at node 14)
Injected flit rate average = 0.0998542
	minimum = 0.091 (at node 2)
	maximum = 0.114667 (at node 11)
Accepted flit rate average= 0.100062
	minimum = 0.087 (at node 5)
	maximum = 0.119333 (at node 14)
Injected packet length average = 1
Accepted packet length average = 1
Total in-flight flits = 60 (60 measured)
latency change    = 0.00506225
throughput change = 0.00405996
Draining all recorded packets ...
Draining remaining packets ...
Time taken is 6151 cycles
Class 0:
Packet latency average = 37.3742
	minimum = 7
	maximum = 111
Network latency average = 37.3698
	minimum = 7
	maximum = 111
Slowest packet = 55366
Flit latency average = 37.3698
	minimum = 7
	maximum = 111
Slowest flit = 55366
Fragmentation average = 0
	minimum = 0
	maximum = 0
Injected packet rate average = 0.1035
	minimum = 0.082 (at node 0)
	maximum = 0.124 (at node 8)
Accepted packet rate average = 0.099375
	minimum = 0.081 (at node 2)
	maximum = 0.122 (at node 4)
Injected flit rate average = 0.1035
	minimum = 0.082 (at node 0)
	maximum = 0.124 (at node 8)
Accepted flit rate average= 0.099375
	minimum = 0.081 (at node 2)
	maximum = 0.122 (at node 4)
Injected packet length average = 1
Accepted packet length average = 1
Total in-flight flits = 66 (0 measured)
latency change    = 1
throughput change = 1
Class 0:
Packet latency average = 38.6391
	minimum = 7
	maximum = 140
Network latency average = 38.625
	minimum = 7
	maximum = 140
Slowest packet = 58085
Flit latency average = 38.625
	minimum = 7
	maximum = 140
Slowest flit = 58085
Fragmentation average = 0
	minimum = 0
	maximum = 0
Injected packet rate average = 0.101969
	minimum = 0.0915 (at node 0)
	maximum = 0.1165 (at node 8)
Accepted packet rate average = 0.100094
	minimum = 0.0875 (at node 5)
	maximum = 0.1125 (at node 12)
Injected flit rate average = 0.101969
	minimum = 0.0915 (at node 0)
	maximum = 0.1165 (at node 8)
Accepted flit rate average= 0.100094
	minimum = 0.0875 (at node 5)
	maximum = 0.1125 (at node 12)
Injected packet length average = 1
Accepted packet length average = 1
Total in-flight flits = 60 (0 measured)
latency change    = 0.0327356
throughput change = 0.00718077
Class 0:
Packet latency average = 38.201
	minimum = 7
	maximum = 138
Network latency average = 38.1875
	minimum = 7
	maximum = 138
Slowest packet = 58113
Flit latency average = 38.1875
	minimum = 7
	maximum = 138
Slowest flit = 58113
Fragmentation average = 0
	minimum = 0
	maximum = 0
Injected packet rate average = 0.0971875
	minimum = 0.079 (at node 2)
	maximum = 0.112 (at node 10)
Accepted packet rate average = 0.0973125
	minimum = 0.081 (at node 5)
	maximum = 0.113 (at node 13)
Injected flit rate average = 0.0971875
	minimum = 0.079 (at node 2)
	maximum = 0.112 (at node 10)
Accepted flit rate average= 0.0973125
	minimum = 0.081 (at node 5)
	maximum = 0.113 (at node 13)
Injected packet length average = 1
Accepted packet length average = 1
Total in-flight flits = 58 (0 measured)
latency change    = 0.0114673
throughput change = 0.0285806
Warmed up ...Time used is 3000 cycles
Class 0:
Packet latency average = 38.1931
	minimum = 7
	maximum = 102
Network latency average = 38.1854
	minimum = 7
	maximum = 102
Slowest packet = 60494
Flit latency average = 38.4422
	minimum = 7
	maximum = 102
Slowest flit = 60494
Fragmentation average = 0
	minimum = 0
	maximum = 0
Injected packet rate average = 0.101562
	minimum = 0.092 (at node 8)
	maximum = 0.115 (at node 1)
Accepted packet rate average = 0.101062
	minimum = 0.084 (at node 2)
	maximum = 0.123 (at node 6)
Injected flit rate average = 0.101562
	minimum = 0.092 (at node 8)
	maximum = 0.115 (at node 1)
Accepted flit rate average= 0.101062
	minimum = 0.084 (at node 2)
	maximum = 0.123 (at node 6)
Injected packet length average = 1
Accepted packet length average = 1
Total in-flight flits = 66 (66 measured)
latency change    = 0.000208287
throughput change = 0.0371058
Class 0:
Packet latency average = 38.9579
	minimum = 7
	maximum = 123
Network latency average = 38.9183
	minimum = 7
	maximum = 123
Slowest packet = 62420
Flit latency average = 39.0351
	minimum = 7
	maximum = 123
Slowest flit = 62420
Fragmentation average = 0
	minimum = 0
	maximum = 0
Injected packet rate average = 0.0999375
	minimum = 0.0905 (at node 2)
	maximum = 0.11 (at node 0)
Accepted packet rate average = 0.0997813
	minimum = 0.0845 (at node 2)
	maximum = 0.1105 (at node 14)
Injected flit rate average = 0.0999375
	minimum = 0.0905 (at node 2)
	maximum = 0.11 (at node 0)
Accepted flit rate average= 0.0997813
	minimum = 0.0845 (at node 2)
	maximum = 0.1105 (at node 14)
Injected packet length average = 1
Accepted packet length average = 1
Total in-flight flits = 63 (63 measured)
latency change    = 0.019632
throughput change = 0.0128406
Class 0:
Packet latency average = 38.6292
	minimum = 7
	maximum = 123
Network latency average = 38.6013
	minimum = 7
	maximum = 123
Slowest packet = 62420
Flit latency average = 38.6841
	minimum = 7
	maximum = 123
Slowest flit = 62420
Fragmentation average = 0
	minimum = 0
	maximum = 0
Injected packet rate average = 0.0984375
	minimum = 0.0903333 (at node 2)
	maximum = 0.108 (at node 0)
Accepted packet rate average = 0.0984583
	minimum = 0.086 (at node 2)
	maximum = 0.110667 (at node 6)
Injected flit rate average = 0.0984375
	minimum = 0.0903333 (at node 2)
	maximum = 0.108 (at node 0)
Accepted flit rate average= 0.0984583
	minimum = 0.086 (at node 2)
	maximum = 0.110667 (at node 6)
Injected packet length average = 1
Accepted packet length average = 1
Total in-flight flits = 57 (57 measured)
latency change    = 0.00850956
throughput change = 0.0134363
Draining all recorded packets ...
Draining remaining packets ...
Time taken is 6155 cycles
Class 0:
Packet latency average = 40.3533
	minimum = 7
	maximum = 184
Network latency average = 40.216
	minimum = 7
	maximum = 183
Slowest packet = 65180
Flit latency average = 40.216
	minimum = 7
	maximum = 183
Slowest flit = 65180
Fragmentation average = 0
	minimum = 0
	maximum = 0
Injected packet rate average = 0.0991875
	minimum = 0.084 (at node 15)
	maximum = 0.126 (at node 3)
Accepted packet rate average = 0.0951875
	minimum = 0.08 (at node 14)
	maximum = 0.114 (at node 4)
Injected flit rate average = 0.0991875
	minimum = 0.084 (at node 15)
	maximum = 0.126 (at node 3)
Accepted flit rate average= 0.0951875
	minimum = 0.08 (at node 14)
	maximum = 0.114 (at node 4)
Injected packet length average = 1
Accepted packet length average = 1
Total in-flight flits = 64 (0 measured)
latency change    = 1
throughput change = 1
Class 0:
Packet latency average = 40.65
	minimum = 7
	maximum = 198
Network latency average = 40.1488
	minimum = 7
	maximum = 198
Slowest packet = 66547
Flit latency average = 40.1488
	minimum = 7
	maximum = 198
Slowest flit = 66547
Fragmentation average = 0
	minimum = 0
	maximum = 0
Injected packet rate average = 0.0997813
	minimum = 0.09 (at node 5)
	maximum = 0.1065 (at node 0)
Accepted packet rate average = 0.0978437
	minimum = 0.08 (at node 11)
	maximum = 0.114 (at node 9)
Injected flit rate average = 0.0997813
	minimum = 0.09 (at node 5)
	maximum = 0.1065 (at node 0)
Accepted flit rate average= 0.0978437
	minimum = 0.08 (at node 11)
	maximum = 0.114 (at node 9)
Injected packet length average = 1
Accepted packet length average = 1
Total in-flight flits = 62 (0 measured)
latency change    = 0.00729895
throughput change = 0.0271479
Class 0:
Packet latency average = 38.3566
	minimum = 7
	maximum = 133
Network latency average = 38.3503
	minimum = 7
	maximum = 133
Slowest packet = 68841
Flit latency average = 38.3503
	minimum = 7
	maximum = 133
Slowest flit = 68841
Fragmentation average = 0
	minimum = 0
	maximum = 0
Injected packet rate average = 0.099875
	minimum = 0.089 (at node 5)
	maximum = 0.114 (at node 11)
Accepted packet rate average = 0.0985
	minimum = 0.081 (at node 1)
	maximum = 0.112 (at node 5)
Injected flit rate average = 0.099875
	minimum = 0.089 (at node 5)
	maximum = 0.114 (at node 11)
Accepted flit rate average= 0.0985
	minimum = 0.081 (at node 1)
	maximum = 0.112 (at node 5)
Injected packet length average = 1
Accepted packet length average = 1
Total in-flight flits = 85 (0 measured)
latency change    = 0.0597903
throughput change = 0.00666244
Warmed up ...Time used is 3000 cycles
Class 0:
Packet latency average = 38.1332
	minimum = 7
	maximum = 112
Network latency average = 38.0881
	minimum = 7
	maximum = 112
Slowest packet = 69827
Flit latency average = 39.0602
	minimum = 7
	maximum = 112
Slowest flit = 69827
Fragmentation average = 0
	minimum = 0
	maximum = 0
Injected packet rate average = 0.098625
	minimum = 0.081 (at node 6)
	maximum = 0.114 (at node 14)
Accepted packet rate average = 0.099625
	minimum = 0.079 (at node 7)
	maximum = 0.122 (at node 5)
Injected flit rate average = 0.098625
	minimum = 0.081 (at node 6)
	maximum = 0.114 (at node 14)
Accepted flit rate average= 0.099625
	minimum = 0.079 (at node 7)
	maximum = 0.122 (at node 5)
Injected packet length average = 1
Accepted packet length average = 1
Total in-flight flits = 68 (68 measured)
latency change    = 0.00585836
throughput change = 0.0112923
Class 0:
Packet latency average = 39.0584
	minimum = 7
	maximum = 130
Network latency average = 39.0212
	minimum = 7
	maximum = 130
Slowest packet = 71015
Flit latency average = 39.4805
	minimum = 7
	maximum = 130
Slowest flit = 71015
Fragmentation average = 0
	minimum = 0
	maximum = 0
Injected packet rate average = 0.0998437
	minimum = 0.0855 (at node 13)
	maximum = 0.1115 (at node 0)
Accepted packet rate average = 0.100031
	minimum = 0.091 (at node 8)
	maximum = 0.1105 (at node 10)
Injected flit rate average = 0.0998437
	minimum = 0.0855 (at node 13)
	maximum = 0.1115 (at node 0)
Accepted flit rate average= 0.100031
	minimum = 0.091 (at node 8)
	maximum = 0.1105 (at node 10)
Injected packet length average = 1
Accepted packet length average = 1
Total in-flight flits = 78 (78 measured)
latency change    = 0.0236878
throughput change = 0.00406123
Class 0:
Packet latency average = 39.4759
	minimum = 7
	maximum = 157
Network latency average = 39.4221
	minimum = 7
	maximum = 157
Slowest packet = 74067
Flit latency average = 39.7176
	minimum = 7
	maximum = 157
Slowest flit = 74067
Fragmentation average = 0
	minimum = 0
	maximum = 0
Injected packet rate average = 0.100812
	minimum = 0.0926667 (at node 13)
	maximum = 0.112667 (at node 14)
Accepted packet rate average = 0.101229
	minimum = 0.093 (at node 4)
	maximum = 0.108333 (at node 10)
Injected flit rate average = 0.100812
	minimum = 0.0926667 (at node 13)
	maximum = 0.112667 (at node 14)
Accepted flit rate average= 0.101229
	minimum = 0.093 (at node 4)
	maximum = 0.108333 (at node 10)
Injected packet length average = 1
Accepted packet length average = 1
Total in-flight flits = 64 (64 measured)
latency change    = 0.0105761
throughput change = 0.0118337
Draining all recorded packets ...
Draining remaining packets ...
Time taken is 6125 cycles
Class 0:
Packet latency average = 39.3617
	minimum = 7
	maximum = 115
Network latency average = 39.2615
	minimum = 7
	maximum = 115
Slowest packet = 75359
Flit latency average = 39.2615
	minimum = 7
	maximum = 115
Slowest flit = 75359
Fragmentation average = 0
	minimum = 0
	maximum = 0
Injected packet rate average = 0.0998125
	minimum = 0.079 (at node 6)
	maximum = 0.122 (at node 11)
Accepted packet rate average = 0.095375
	minimum = 0.075 (at node 5)
	maximum = 0.118 (at node 9)
Injected flit rate average = 0.0998125
	minimum = 0.079 (at node 6)
	maximum = 0.122 (at node 11)
Accepted flit rate average= 0.095375
	minimum = 0.075 (at node 5)
	maximum = 0.118 (at node 9)
Injected packet length average = 1
Accepted packet length average = 1
Total in-flight flits = 72 (0 measured)
latency change    = 1
throughput change = 1
Class 0:
Packet latency average = 39.2604
	minimum = 7
	maximum = 120
Network latency average = 39.0539
	minimum = 7
	maximum = 120
Slowest packet = 77215
Flit latency average = 39.0539
	minimum = 7
	maximum = 120
Slowest flit = 77215
Fragmentation average = 0
	minimum = 0
	maximum = 0
Injected packet rate average = 0.1005
	minimum = 0.0905 (at node 6)
	maximum = 0.116 (at node 0)
Accepted packet rate average = 0.0985313
	minimum = 0.082 (at node 5)
	maximum = 0.1155 (at node 9)
Injected flit rate average = 0.1005
	minimum = 0.0905 (at node 6)
	maximum = 0.116 (at node 0)
Accepted flit rate average= 0.0985313
	minimum = 0.082 (at node 5)
	maximum = 0.1155 (at node 9)
Injected packet length average = 1
Accepted packet length average = 1
Total in-flight flits = 63 (0 measured)
latency change    = 0.00258131
throughput change = 0.032033
Class 0:
Packet latency average = 37.6879
	minimum = 7
	maximum = 101
Network latency average = 37.596
	minimum = 7
	maximum = 101
Slowest packet = 78346
Flit latency average = 37.596
	minimum = 7
	maximum = 101
Slowest flit = 78346
Fragmentation average = 0
	minimum = 0
	maximum = 0
Injected packet rate average = 0.0985625
	minimum = 0.084 (at node 14)
	maximum = 0.115 (at node 1)
Accepted packet rate average = 0.0979375
	minimum = 0.073 (at node 10)
	maximum = 0.12 (at node 6)
Injected flit rate average = 0.0985625
	minimum = 0.084 (at node 14)
	maximum = 0.115 (at node 1)
Accepted flit rate average= 0.0979375
	minimum = 0.073 (at node 10)
	maximum = 0.12 (at node 6)
Injected packet length average = 1
Accepted packet length average = 1
Total in-flight flits = 73 (0 measured)
latency change    = 0.0417228
throughput change = 0.00606254
Warmed up ...Time used is 3000 cycles
Class 0:
Packet latency average = 43.8953
	minimum = 7
	maximum = 255
Network latency average = 41.2716
	minimum = 7
	maximum = 228
Slowest packet = 80296
Flit latency average = 41.716
	minimum = 7
	maximum = 228
Slowest flit = 80296
Fragmentation average = 0
	minimum = 0
	maximum = 0
Injected packet rate average = 0.105938
	minimum = 0.091 (at node 0)
	maximum = 0.12 (at node 7)
Accepted packet rate average = 0.106063
	minimum = 0.085 (at node 7)
	maximum = 0.123 (at node 3)
Injected flit rate average = 0.105938
	minimum = 0.091 (at node 0)
	maximum = 0.12 (at node 7)
Accepted flit rate average= 0.106063
	minimum = 0.085 (at node 7)
	maximum = 0.123 (at node 3)
Injected packet length average = 1
Accepted packet length average = 1
Total in-flight flits = 72 (72 measured)
latency change    = 0.141413
throughput change = 0.0766058
Class 0:
Packet latency average = 43.9411
	minimum = 7
	maximum = 255
Network latency average = 42.0684
	minimum = 7
	maximum = 228
Slowest packet = 80296
Flit latency average = 42.2761
	minimum = 7
	maximum = 228
Slowest flit = 80296
Fragmentation average = 0
	minimum = 0
	maximum = 0
Injected packet rate average = 0.104031
	minimum = 0.0955 (at node 12)
	maximum = 0.115 (at node 6)
Accepted packet rate average = 0.104688
	minimum = 0.0875 (at node 7)
	maximum = 0.115 (at node 12)
Injected flit rate average = 0.104031
	minimum = 0.0955 (at node 12)
	maximum = 0.115 (at node 6)
Accepted flit rate average= 0.104688
	minimum = 0.0875 (at node 7)
	maximum = 0.115 (at node 12)
Injected packet length average = 1
Accepted packet length average = 1
Total in-flight flits = 52 (52 measured)
latency change    = 0.00104195
throughput change = 0.0131343
Class 0:
Packet latency average = 42.3429
	minimum = 7
	maximum = 255
Network latency average = 41.0637
	minimum = 7
	maximum = 228
Slowest packet = 80296
Flit latency average = 41.2205
	minimum = 7
	maximum = 228
Slowest flit = 80296
Fragmentation average = 0
	minimum = 0
	maximum = 0
Injected packet rate average = 0.10175
	minimum = 0.0953333 (at node 11)
	maximum = 0.109333 (at node 6)
Accepted packet rate average = 0.102208
	minimum = 0.089 (at node 7)
	maximum = 0.110667 (at node 4)
Injected flit rate average = 0.10175
	minimum = 0.0953333 (at node 11)
	maximum = 0.109333 (at node 6)
Accepted flit rate average= 0.102208
	minimum = 0.089 (at node 7)
	maximum = 0.110667 (at node 4)
Injected packet length average = 1
Accepted packet length average = 1
Total in-flight flits = 51 (51 measured)
latency change    = 0.0377455
throughput change = 0.024256
Class 0:
Packet latency average = 41.7567
	minimum = 7
	maximum = 255
Network latency average = 40.7569
	minimum = 7
	maximum = 228
Slowest packet = 80296
Flit latency average = 40.8801
	minimum = 7
	maximum = 228
Slowest flit = 80296
Fragmentation average = 0
	minimum = 0
	maximum = 0
Injected packet rate average = 0.100109
	minimum = 0.0915 (at node 11)
	maximum = 0.1065 (at node 7)
Accepted packet rate average = 0.100359
	minimum = 0.09175 (at node 6)
	maximum = 0.10825 (at node 3)
Injected flit rate average = 0.100109
	minimum = 0.0915 (at node 11)
	maximum = 0.1065 (at node 7)
Accepted flit rate average= 0.100359
	minimum = 0.09175 (at node 6)
	maximum = 0.10825 (at node 3)
Injected packet length average = 1
Accepted packet length average = 1
Total in-flight flits = 57 (57 measured)
latency change    = 0.0140375
throughput change = 0.0184234
Draining all recorded packets ...
Draining remaining packets ...
Time taken is 7130 cycles
Class 0:
Packet latency average = 38.0089
	minimum = 7
	maximum = 114
Network latency average = 37.9827
	minimum = 7
	maximum = 114
Slowest packet = 86599
Flit latency average = 37.9827
	minimum = 7
	maximum = 114
Slowest flit = 86599
Fragmentation average = 0
	minimum = 0
	maximum = 0
Injected packet rate average = 0.10175
	minimum = 0.088 (at node 4)
	maximum = 0.116 (at node 6)
Accepted packet rate average = 0.0978125
	minimum = 0.075 (at node 15)
	maximum = 0.114 (at node 11)
Injected flit rate average = 0.10175
	minimum = 0.088 (at node 4)
	maximum = 0.116 (at node 6)
Accepted flit rate average= 0.0978125
	minimum = 0.075 (at node 15)
	maximum = 0.114 (at node 11)
Injected packet length average = 1
Accepted packet length average = 1
Total in-flight flits = 63 (0 measured)
latency change    = 1
throughput change = 1
Class 0:
Packet latency average = 38.8966
	minimum = 7
	maximum = 142
Network latency average = 38.8648
	minimum = 7
	maximum = 142
Slowest packet = 88332
Flit latency average = 38.8648
	minimum = 7
	maximum = 142
Slowest flit = 88332
Fragmentation average = 0
	minimum = 0
	maximum = 0
Injected packet rate average = 0.102313
	minimum = 0.094 (at node 4)
	maximum = 0.115 (at node 6)
Accepted packet rate average = 0.100344
	minimum = 0.09 (at node 10)
	maximum = 0.109 (at node 11)
Injected flit rate average = 0.102313
	minimum = 0.094 (at node 4)
	maximum = 0.115 (at node 6)
Accepted flit rate average= 0.100344
	minimum = 0.09 (at node 10)
	maximum = 0.109 (at node 11)
Injected packet length average = 1
Accepted packet length average = 1
Total in-flight flits = 63 (0 measured)
latency change    = 0.022821
throughput change = 0.0252258
Class 0:
Packet latency average = 40.4277
	minimum = 7
	maximum = 153
Network latency average = 40.2246
	minimum = 7
	maximum = 153
Slowest packet = 89857
Flit latency average = 40.2246
	minimum = 7
	maximum = 153
Slowest flit = 89857
Fragmentation average = 0
	minimum = 0
	maximum = 0
Injected packet rate average = 0.101187
	minimum = 0.087 (at node 9)
	maximum = 0.117 (at node 0)
Accepted packet rate average = 0.101562
	minimum = 0.076 (at node 6)
	maximum = 0.124 (at node 4)
Injected flit rate average = 0.101187
	minimum = 0.087 (at node 9)
	maximum = 0.117 (at node 0)
Accepted flit rate average= 0.101562
	minimum = 0.076 (at node 6)
	maximum = 0.124 (at node 4)
Injected packet length average = 1
Accepted packet length average = 1
Total in-flight flits = 57 (0 measured)
latency change    = 0.0378722
throughput change = 0.012
Warmed up ...Time used is 3000 cycles
Class 0:
Packet latency average = 39.3547
	minimum = 7
	maximum = 112
Network latency average = 39.3346
	minimum = 7
	maximum = 112
Slowest packet = 91456
Flit latency average = 39.4001
	minimum = 7
	maximum = 112
Slowest flit = 91456
Fragmentation average = 0
	minimum = 0
	maximum = 0
Injected packet rate average = 0.100187
	minimum = 0.074 (at node 12)
	maximum = 0.12 (at node 1)
Accepted packet rate average = 0.100125
	minimum = 0.088 (at node 14)
	maximum = 0.116 (at node 9)
Injected flit rate average = 0.100187
	minimum = 0.074 (at node 12)
	maximum = 0.12 (at node 1)
Accepted flit rate average= 0.100125
	minimum = 0.088 (at node 14)
	maximum = 0.116 (at node 9)
Injected packet length average = 1
Accepted packet length average = 1
Total in-flight flits = 58 (58 measured)
latency change    = 0.0272648
throughput change = 0.0143571
Class 0:
Packet latency average = 39.9815
	minimum = 7
	maximum = 159
Network latency average = 39.9645
	minimum = 7
	maximum = 159
Slowest packet = 92506
Flit latency average = 39.9862
	minimum = 7
	maximum = 159
Slowest flit = 92506
Fragmentation average = 0
	minimum = 0
	maximum = 0
Injected packet rate average = 0.0999375
	minimum = 0.0875 (at node 12)
	maximum = 0.1125 (at node 0)
Accepted packet rate average = 0.0995
	minimum = 0.084 (at node 4)
	maximum = 0.1155 (at node 12)
Injected flit rate average = 0.0999375
	minimum = 0.0875 (at node 12)
	maximum = 0.1125 (at node 0)
Accepted flit rate average= 0.0995
	minimum = 0.084 (at node 4)
	maximum = 0.1155 (at node 12)
Injected packet length average = 1
Accepted packet length average = 1
Total in-flight flits = 71 (71 measured)
latency change    = 0.0156763
throughput change = 0.00628141
Class 0:
Packet latency average = 39.9759
	minimum = 7
	maximum = 159
Network latency average = 39.9567
	minimum = 7
	maximum = 159
Slowest packet = 92506
Flit latency average = 39.9712
	minimum = 7
	maximum = 159
Slowest flit = 92506
Fragmentation average = 0
	minimum = 0
	maximum = 0
Injected packet rate average = 0.099625
	minimum = 0.0896667 (at node 12)
	maximum = 0.108667 (at node 3)
Accepted packet rate average = 0.0997292
	minimum = 0.0873333 (at node 4)
	maximum = 0.111 (at node 12)
Injected flit rate average = 0.099625
	minimum = 0.0896667 (at node 12)
	maximum = 0.108667 (at node 3)
Accepted flit rate average= 0.0997292
	minimum = 0.0873333 (at node 4)
	maximum = 0.111 (at node 12)
Injected packet length average = 1
Accepted packet length average = 1
Total in-flight flits = 52 (52 measured)
latency change    = 0.000138917
throughput change = 0.00229789
Draining all recorded packets ...
Draining remaining packets ...
Time taken is 6100 cycles
Class 0:
Packet latency average = 37.5968
	minimum = 7
	maximum = 98
Network latency average = 37.5767
	minimum = 7
	maximum = 98
Slowest packet = 96164
Flit latency average = 37.5767
	minimum = 7
	maximum = 98
Slowest flit = 96164
Fragmentation average = 0
	minimum = 0
	maximum = 0
Injected packet rate average = 0.100625
	minimum = 0.086 (at node 3)
	maximum = 0.119 (at node 9)
Accepted packet rate average = 0.0965625
	minimum = 0.077 (at node 11)
	maximum = 0.109 (at node 1)
Injected flit rate average = 0.100625
	minimum = 0.086 (at node 3)
	maximum = 0.119 (at node 9)
Accepted flit rate average= 0.0965625
	minimum = 0.077 (at node 11)
	maximum = 0.109 (at node 1)
Injected packet length average = 1
Accepted packet length average = 1
Total in-flight flits = 65 (0 measured)
latency change    = 1
throughput change = 1
Class 0:
Packet latency average = 38.5508
	minimum = 7
	maximum = 113
Network latency average = 38.5166
	minimum = 7
	maximum = 113
Slowest packet = 98476
Flit latency average = 38.5166
	minimum = 7
	maximum = 113
Slowest flit = 98476
Fragmentation average = 0
	minimum = 0
	maximum = 0
Injected packet rate average = 0.101062
	minimum = 0.085 (at node 13)
	maximum = 0.1105 (at node 1)
Accepted packet rate average = 0.0987813
	minimum = 0.0865 (at node 3)
	maximum = 0.1135 (at node 5)
Injected flit rate average = 0.101062
	minimum = 0.085 (at node 13)
	maximum = 0.1105 (at node 1)
Accepted flit rate average= 0.0987813
	minimum = 0.0865 (at node 3)
	maximum = 0.1135 (at node 5)
Injected packet length average = 1
Accepted packet length average = 1
Total in-flight flits = 74 (0 measured)
latency change    = 0.0247469
throughput change = 0.0224612
Class 0:
Packet latency average = 42.3577
	minimum = 7
	maximum = 237
Network latency average = 41.8885
	minimum = 7
	maximum = 232
Slowest packet = 99878
Flit latency average = 41.8885
	minimum = 7
	maximum = 232
Slowest flit = 99878
Fragmentation average = 0
	minimum = 0
	maximum = 0
Injected packet rate average = 0.0993125
	minimum = 0.078 (at node 0)
	maximum = 0.119 (at node 2)
Accepted packet rate average = 0.09925
	minimum = 0.082 (at node 5)
	maximum = 0.126 (at node 14)
Injected flit rate average = 0.0993125
	minimum = 0.078 (at node 0)
	maximum = 0.119 (at node 2)
Accepted flit rate average= 0.09925
	minimum = 0.082 (at node 5)
	maximum = 0.126 (at node 14)
Injected packet length average = 1
Accepted packet length average = 1
Total in-flight flits = 74 (0 measured)
latency change    = 0.0898753
throughput change = 0.00472292
Warmed up ...Time used is 3000 cycles
Class 0:
Packet latency average = 37.8713
	minimum = 7
	maximum = 124
Network latency average = 37.8605
	minimum = 7
	maximum = 124
Slowest packet = 101269
Flit latency average = 38.5591
	minimum = 7
	maximum = 154
Slowest flit = 100181
Fragmentation average = 0
	minimum = 0
	maximum = 0
Injected packet rate average = 0.0969375
	minimum = 0.08 (at node 10)
	maximum = 0.111 (at node 5)
Accepted packet rate average = 0.097375
	minimum = 0.08 (at node 4)
	maximum = 0.123 (at node 7)
Injected flit rate average = 0.0969375
	minimum = 0.08 (at node 10)
	maximum = 0.111 (at node 5)
Accepted flit rate average= 0.097375
	minimum = 0.08 (at node 4)
	maximum = 0.123 (at node 7)
Injected packet length average = 1
Accepted packet length average = 1
Total in-flight flits = 67 (67 measured)
latency change    = 0.118464
throughput change = 0.0192555
Class 0:
Packet latency average = 39.378
	minimum = 7
	maximum = 147
Network latency average = 39.2329
	minimum = 7
	maximum = 147
Slowest packet = 102456
Flit latency average = 39.5377
	minimum = 7
	maximum = 154
Slowest flit = 100181
Fragmentation average = 0
	minimum = 0
	maximum = 0
Injected packet rate average = 0.101562
	minimum = 0.0925 (at node 10)
	maximum = 0.111 (at node 9)
Accepted packet rate average = 0.101187
	minimum = 0.085 (at node 4)
	maximum = 0.116 (at node 9)
Injected flit rate average = 0.101562
	minimum = 0.0925 (at node 10)
	maximum = 0.111 (at node 9)
Accepted flit rate average= 0.101187
	minimum = 0.085 (at node 4)
	maximum = 0.116 (at node 9)
Injected packet length average = 1
Accepted packet length average = 1
Total in-flight flits = 86 (86 measured)
latency change    = 0.0382627
throughput change = 0.0376776
Class 0:
Packet latency average = 39.302
	minimum = 7
	maximum = 147
Network latency average = 39.1902
	minimum = 7
	maximum = 147
Slowest packet = 102456
Flit latency average = 39.3951
	minimum = 7
	maximum = 154
Slowest flit = 100181
Fragmentation average = 0
	minimum = 0
	maximum = 0
Injected packet rate average = 0.100437
	minimum = 0.095 (at node 0)
	maximum = 0.11 (at node 9)
Accepted packet rate average = 0.100667
	minimum = 0.0876667 (at node 4)
	maximum = 0.107667 (at node 7)
Injected flit rate average = 0.100437
	minimum = 0.095 (at node 0)
	maximum = 0.11 (at node 9)
Accepted flit rate average= 0.100667
	minimum = 0.0876667 (at node 4)
	maximum = 0.107667 (at node 7)
Injected packet length average = 1
Accepted packet length average = 1
Total in-flight flits = 63 (63 measured)
latency change    = 0.00193336
throughput change = 0.00517384
Class 0:
Packet latency average = 39.2936
	minimum = 7
	maximum = 147
Network latency average = 39.2083
	minimum = 7
	maximum = 147
Slowest packet = 102456
Flit latency average = 39.3615
	minimum = 7
	maximum = 154
Slowest flit = 100181
Fragmentation average = 0
	minimum = 0
	maximum = 0
Injected packet rate average = 0.100734
	minimum = 0.09525 (at node 2)
	maximum = 0.11 (at node 9)
Accepted packet rate average = 0.100828
	minimum = 0.08525 (at node 4)
	maximum = 0.10825 (at node 9)
Injected flit rate average = 0.100734
	minimum = 0.09525 (at node 2)
	maximum = 0.11 (at node 9)
Accepted flit rate average= 0.100828
	minimum = 0.08525 (at node 4)
	maximum = 0.10825 (at node 9)
Injected packet length average = 1
Accepted packet length average = 1
Total in-flight flits = 68 (68 measured)
latency change    = 0.000213723
throughput change = 0.00160132
Draining all recorded packets ...
Draining remaining packets ...
Time taken is 7138 cycles
Class 0:
Packet latency average = 40.6699
	minimum = 7
	maximum = 175
Network latency average = 40.3626
	minimum = 7
	maximum = 175
Slowest packet = 107150
Flit latency average = 40.3626
	minimum = 7
	maximum = 175
Slowest flit = 107150
Fragmentation average = 0
	minimum = 0
	maximum = 0
Injected packet rate average = 0.0994375
	minimum = 0.079 (at node 11)
	maximum = 0.123 (at node 14)
Accepted packet rate average = 0.0961875
	minimum = 0.079 (at node 5)
	maximum = 0.124 (at node 1)
Injected flit rate average = 0.0994375
	minimum = 0.079 (at node 11)
	maximum = 0.123 (at node 14)
Accepted flit rate average= 0.0961875
	minimum = 0.079 (at node 5)
	maximum = 0.124 (at node 1)
Injected packet length average = 1
Accepted packet length average = 1
Total in-flight flits = 52 (0 measured)
latency change    = 1
throughput change = 1
Class 0:
Packet latency average = 40.5695
	minimum = 7
	maximum = 175
Network latency average = 40.4147
	minimum = 7
	maximum = 175
Slowest packet = 107150
Flit latency average = 40.4147
	minimum = 7
	maximum = 175
Slowest flit = 107150
Fragmentation average = 0
	minimum = 0
	maximum = 0
Injected packet rate average = 0.101938
	minimum = 0.092 (at node 11)
	maximum = 0.1135 (at node 2)
Accepted packet rate average = 0.0993125
	minimum = 0.0815 (at node 5)
	maximum = 0.1105 (at node 1)
Injected flit rate average = 0.101938
	minimum = 0.092 (at node 11)
	maximum = 0.1135 (at node 2)
Accepted flit rate average= 0.0993125
	minimum = 0.0815 (at node 5)
	maximum = 0.1105 (at node 1)
Injected packet length average = 1
Accepted packet length average = 1
Total in-flight flits = 84 (0 measured)
latency change    = 0.00247415
throughput change = 0.0314663
Class 0:
Packet latency average = 43.8595
	minimum = 7
	maximum = 205
Network latency average = 43.1909
	minimum = 7
	maximum = 205
Slowest packet = 110767
Flit latency average = 43.1909
	minimum = 7
	maximum = 205
Slowest flit = 110767
Fragmentation average = 0
	minimum = 0
	maximum = 0
Injected packet rate average = 0.0983125
	minimum = 0.085 (at node 8)
	maximum = 0.122 (at node 7)
Accepted packet rate average = 0.1005
	minimum = 0.088 (at node 12)
	maximum = 0.127 (at node 9)
Injected flit rate average = 0.0983125
	minimum = 0.085 (at node 8)
	maximum = 0.122 (at node 7)
Accepted flit rate average= 0.1005
	minimum = 0.088 (at node 12)
	maximum = 0.127 (at node 9)
Injected packet length average = 1
Accepted packet length average = 1
Total in-flight flits = 49 (0 measured)
latency change    = 0.0750103
throughput change = 0.0118159
Warmed up ...Time used is 3000 cycles
Class 0:
Packet latency average = 39.3246
	minimum = 7
	maximum = 126
Network latency average = 39.3136
	minimum = 7
	maximum = 126
Slowest packet = 112036
Flit latency average = 39.5648
	minimum = 7
	maximum = 126
Slowest flit = 112036
Fragmentation average = 0
	minimum = 0
	maximum = 0
Injected packet rate average = 0.101562
	minimum = 0.093 (at node 0)
	maximum = 0.116 (at node 1)
Accepted packet rate average = 0.0989375
	minimum = 0.08 (at node 2)
	maximum = 0.113 (at node 0)
Injected flit rate average = 0.101562
	minimum = 0.093 (at node 0)
	maximum = 0.116 (at node 1)
Accepted flit rate average= 0.0989375
	minimum = 0.08 (at node 2)
	maximum = 0.113 (at node 0)
Injected packet length average = 1
Accepted packet length average = 1
Total in-flight flits = 91 (91 measured)
latency change    = 0.115317
throughput change = 0.0157928
Class 0:
Packet latency average = 41.7115
	minimum = 7
	maximum = 185
Network latency average = 41.2837
	minimum = 7
	maximum = 185
Slowest packet = 113722
Flit latency average = 41.377
	minimum = 7
	maximum = 185
Slowest flit = 113722
Fragmentation average = 0
	minimum = 0
	maximum = 0
Injected packet rate average = 0.101344
	minimum = 0.0845 (at node 0)
	maximum = 0.116 (at node 4)
Accepted packet rate average = 0.100875
	minimum = 0.088 (at node 14)
	maximum = 0.114 (at node 15)
Injected flit rate average = 0.101344
	minimum = 0.0845 (at node 0)
	maximum = 0.116 (at node 4)
Accepted flit rate average= 0.100875
	minimum = 0.088 (at node 14)
	maximum = 0.114 (at node 15)
Injected packet length average = 1
Accepted packet length average = 1
Total in-flight flits = 64 (64 measured)
latency change    = 0.057224
throughput change = 0.0192069
Class 0:
Packet latency average = 40.703
	minimum = 7
	maximum = 185
Network latency average = 40.4003
	minimum = 7
	maximum = 185
Slowest packet = 113722
Flit latency average = 40.4718
	minimum = 7
	maximum = 185
Slowest flit = 113722
Fragmentation average = 0
	minimum = 0
	maximum = 0
Injected packet rate average = 0.100604
	minimum = 0.0853333 (at node 14)
	maximum = 0.111 (at node 11)
Accepted packet rate average = 0.100417
	minimum = 0.0926667 (at node 6)
	maximum = 0.109 (at node 3)
Injected flit rate average = 0.100604
	minimum = 0.0853333 (at node 14)
	maximum = 0.111 (at node 11)
Accepted flit rate average= 0.100417
	minimum = 0.0926667 (at node 6)
	maximum = 0.109 (at node 3)
Injected packet length average = 1
Accepted packet length average = 1
Total in-flight flits = 58 (58 measured)
latency change    = 0.0247782
throughput change = 0.00456432
Class 0:
Packet latency average = 39.9779
	minimum = 7
	maximum = 185
Network latency average = 39.7426
	minimum = 7
	maximum = 185
Slowest packet = 113722
Flit latency average = 39.8012
	minimum = 7
	maximum = 185
Slowest flit = 113722
Fragmentation average = 0
	minimum = 0
	maximum = 0
Injected packet rate average = 0.100484
	minimum = 0.09175 (at node 10)
	maximum = 0.111 (at node 15)
Accepted packet rate average = 0.100453
	minimum = 0.09175 (at node 6)
	maximum = 0.107 (at node 15)
Injected flit rate average = 0.100484
	minimum = 0.09175 (at node 10)
	maximum = 0.111 (at node 15)
Accepted flit rate average= 0.100453
	minimum = 0.09175 (at node 6)
	maximum = 0.107 (at node 15)
Injected packet length average = 1
Accepted packet length average = 1
Total in-flight flits = 51 (51 measured)
latency change    = 0.0181375
throughput change = 0.000362939
Class 0:
Packet latency average = 40.1213
	minimum = 7
	maximum = 185
Network latency average = 39.8487
	minimum = 7
	maximum = 185
Slowest packet = 113722
Flit latency average = 39.8951
	minimum = 7
	maximum = 185
Slowest flit = 113722
Fragmentation average = 0
	minimum = 0
	maximum = 0
Injected packet rate average = 0.10035
	minimum = 0.0948 (at node 14)
	maximum = 0.1086 (at node 15)
Accepted packet rate average = 0.100087
	minimum = 0.0894 (at node 14)
	maximum = 0.1068 (at node 1)
Injected flit rate average = 0.10035
	minimum = 0.0948 (at node 14)
	maximum = 0.1086 (at node 15)
Accepted flit rate average= 0.100087
	minimum = 0.0894 (at node 14)
	maximum = 0.1068 (at node 1)
Injected packet length average = 1
Accepted packet length average = 1
Total in-flight flits = 70 (70 measured)
latency change    = 0.00357322
throughput change = 0.00365305
Draining all recorded packets ...
Draining remaining packets ...
Time taken is 8124 cycles
Class 0:
Packet latency average = 37.6823
	minimum = 7
	maximum = 115
Network latency average = 37.6605
	minimum = 7
	maximum = 115
Slowest packet = 120525
Flit latency average = 37.6605
	minimum = 7
	maximum = 115
Slowest flit = 120525
Fragmentation average = 0
	minimum = 0
	maximum = 0
Injected packet rate average = 0.0985625
	minimum = 0.087 (at node 2)
	maximum = 0.108 (at node 4)
Accepted packet rate average = 0.0944375
	minimum = 0.074 (at node 3)
	maximum = 0.114 (at node 4)
Injected flit rate average = 0.0985625
	minimum = 0.087 (at node 2)
	maximum = 0.108 (at node 4)
Accepted flit rate average= 0.0944375
	minimum = 0.074 (at node 3)
	maximum = 0.114 (at node 4)
Injected packet length average = 1
Accepted packet length average = 1
Total in-flight flits = 66 (0 measured)
latency change    = 1
throughput change = 1
Class 0:
Packet latency average = 39.2321
	minimum = 7
	maximum = 148
Network latency average = 39.2016
	minimum = 7
	maximum = 148
Slowest packet = 122098
Flit latency average = 39.2016
	minimum = 7
	maximum = 148
Slowest flit = 122098
Fragmentation average = 0
	minimum = 0
	maximum = 0
Injected packet rate average = 0.0996563
	minimum = 0.0885 (at node 13)
	maximum = 0.109 (at node 0)
Accepted packet rate average = 0.0973438
	minimum = 0.083 (at node 12)
	maximum = 0.11 (at node 15)
Injected flit rate average = 0.0996563
	minimum = 0.0885 (at node 13)
	maximum = 0.109 (at node 0)
Accepted flit rate average= 0.0973438
	minimum = 0.083 (at node 12)
	maximum = 0.11 (at node 15)
Injected packet length average = 1
Accepted packet length average = 1
Total in-flight flits = 75 (0 measured)
latency change    = 0.0395027
throughput change = 0.0298555
Class 0:
Packet latency average = 40.0972
	minimum = 7
	maximum = 151
Network latency average = 39.573
	minimum = 7
	maximum = 149
Slowest packet = 122984
Flit latency average = 39.573
	minimum = 7
	maximum = 149
Slowest flit = 122984
Fragmentation average = 0
	minimum = 0
	maximum = 0
Injected packet rate average = 0.0983125
	minimum = 0.085 (at node 12)
	maximum = 0.119 (at node 0)
Accepted packet rate average = 0.0996875
	minimum = 0.088 (at node 8)
	maximum = 0.111 (at node 11)
Injected flit rate average = 0.0983125
	minimum = 0.085 (at node 12)
	maximum = 0.119 (at node 0)
Accepted flit rate average= 0.0996875
	minimum = 0.088 (at node 8)
	maximum = 0.111 (at node 11)
Injected packet length average = 1
Accepted packet length average = 1
Total in-flight flits = 52 (0 measured)
latency change    = 0.0215745
throughput change = 0.023511
Warmed up ...Time used is 3000 cycles
Class 0:
Packet latency average = 36.5504
	minimum = 7
	maximum = 109
Network latency average = 36.5392
	minimum = 7
	maximum = 109
Slowest packet = 125377
Flit latency average = 36.6705
	minimum = 7
	maximum = 109
Slowest flit = 125377
Fragmentation average = 0
	minimum = 0
	maximum = 0
Injected packet rate average = 0.0995
	minimum = 0.087 (at node 5)
	maximum = 0.112 (at node 9)
Accepted packet rate average = 0.0980625
	minimum = 0.084 (at node 13)
	maximum = 0.127 (at node 5)
Injected flit rate average = 0.0995
	minimum = 0.087 (at node 5)
	maximum = 0.112 (at node 9)
Accepted flit rate average= 0.0980625
	minimum = 0.084 (at node 13)
	maximum = 0.127 (at node 5)
Injected packet length average = 1
Accepted packet length average = 1
Total in-flight flits = 75 (75 measured)
latency change    = 0.0970372
throughput change = 0.0165711
Class 0:
Packet latency average = 37.7102
	minimum = 7
	maximum = 130
Network latency average = 37.6984
	minimum = 7
	maximum = 130
Slowest packet = 126920
Flit latency average = 37.7455
	minimum = 7
	maximum = 130
Slowest flit = 126920
Fragmentation average = 0
	minimum = 0
	maximum = 0
Injected packet rate average = 0.0970312
	minimum = 0.083 (at node 5)
	maximum = 0.109 (at node 12)
Accepted packet rate average = 0.096625
	minimum = 0.0785 (at node 13)
	maximum = 0.118 (at node 5)
Injected flit rate average = 0.0970312
	minimum = 0.083 (at node 5)
	maximum = 0.109 (at node 12)
Accepted flit rate average= 0.096625
	minimum = 0.0785 (at node 13)
	maximum = 0.118 (at node 5)
Injected packet length average = 1
Accepted packet length average = 1
Total in-flight flits = 65 (65 measured)
latency change    = 0.0307548
throughput change = 0.0148771
Class 0:
Packet latency average = 39.1371
	minimum = 7
	maximum = 183
Network latency average = 39.0515
	minimum = 7
	maximum = 183
Slowest packet = 128990
Flit latency average = 39.0675
	minimum = 7
	maximum = 183
Slowest flit = 128990
Fragmentation average = 0
	minimum = 0
	maximum = 0
Injected packet rate average = 0.0992083
	minimum = 0.09 (at node 0)
	maximum = 0.111333 (at node 12)
Accepted packet rate average = 0.0985
	minimum = 0.0843333 (at node 13)
	maximum = 0.109333 (at node 5)
Injected flit rate average = 0.0992083
	minimum = 0.09 (at node 0)
	maximum = 0.111333 (at node 12)
Accepted flit rate average= 0.0985
	minimum = 0.0843333 (at node 13)
	maximum = 0.109333 (at node 5)
Injected packet length average = 1
Accepted packet length average = 1
Total in-flight flits = 88 (88 measured)
latency change    = 0.0364587
throughput change = 0.0190355
Class 0:
Packet latency average = 41.1956
	minimum = 7
	maximum = 247
Network latency average = 40.2317
	minimum = 7
	maximum = 210
Slowest packet = 129270
Flit latency average = 40.2339
	minimum = 7
	maximum = 210
Slowest flit = 129270
Fragmentation average = 0
	minimum = 0
	maximum = 0
Injected packet rate average = 0.0995937
	minimum = 0.0925 (at node 5)
	maximum = 0.108 (at node 12)
Accepted packet rate average = 0.0994687
	minimum = 0.09 (at node 13)
	maximum = 0.10925 (at node 5)
Injected flit rate average = 0.0995937
	minimum = 0.0925 (at node 5)
	maximum = 0.108 (at node 12)
Accepted flit rate average= 0.0994687
	minimum = 0.09 (at node 13)
	maximum = 0.10925 (at node 5)
Injected packet length average = 1
Accepted packet length average = 1
Total in-flight flits = 60 (60 measured)
latency change    = 0.0499693
throughput change = 0.00973924
Draining all recorded packets ...
Draining remaining packets ...
Time taken is 7116 cycles
Class 0:
Packet latency average = 39.58
	minimum = 7
	maximum = 126
Network latency average = 39.529
	minimum = 7
	maximum = 126
Slowest packet = 131826
Flit latency average = 39.529
	minimum = 7
	maximum = 126
Slowest flit = 131826
Fragmentation average = 0
	minimum = 0
	maximum = 0
Injected packet rate average = 0.100687
	minimum = 0.091 (at node 4)
	maximum = 0.119 (at node 6)
Accepted packet rate average = 0.096875
	minimum = 0.076 (at node 9)
	maximum = 0.112 (at node 3)
Injected flit rate average = 0.100687
	minimum = 0.091 (at node 4)
	maximum = 0.119 (at node 6)
Accepted flit rate average= 0.096875
	minimum = 0.076 (at node 9)
	maximum = 0.112 (at node 3)
Injected packet length average = 1
Accepted packet length average = 1
Total in-flight flits = 61 (0 measured)
latency change    = 1
throughput change = 1
Class 0:
Packet latency average = 40.3352
	minimum = 7
	maximum = 179
Network latency average = 40.1161
	minimum = 7
	maximum = 152
Slowest packet = 133267
Flit latency average = 40.1161
	minimum = 7
	maximum = 152
Slowest flit = 133452
Fragmentation average = 0
	minimum = 0
	maximum = 0
Injected packet rate average = 0.102375
	minimum = 0.097 (at node 4)
	maximum = 0.1125 (at node 6)
Accepted packet rate average = 0.100406
	minimum = 0.083 (at node 9)
	maximum = 0.1145 (at node 3)
Injected flit rate average = 0.102375
	minimum = 0.097 (at node 4)
	maximum = 0.1125 (at node 6)
Accepted flit rate average= 0.100406
	minimum = 0.083 (at node 9)
	maximum = 0.1145 (at node 3)
Injected packet length average = 1
Accepted packet length average = 1
Total in-flight flits = 63 (0 measured)
latency change    = 0.0187231
throughput change = 0.0351696
Class 0:
Packet latency average = 37.9776
	minimum = 7
	maximum = 99
Network latency average = 37.9714
	minimum = 7
	maximum = 99
Slowest packet = 134462
Flit latency average = 37.9714
	minimum = 7
	maximum = 99
Slowest flit = 134462
Fragmentation average = 0
	minimum = 0
	maximum = 0
Injected packet rate average = 0.101187
	minimum = 0.086 (at node 6)
	maximum = 0.121 (at node 3)
Accepted packet rate average = 0.100562
	minimum = 0.086 (at node 11)
	maximum = 0.116 (at node 6)
Injected flit rate average = 0.101187
	minimum = 0.086 (at node 6)
	maximum = 0.121 (at node 3)
Accepted flit rate average= 0.100562
	minimum = 0.086 (at node 11)
	maximum = 0.116 (at node 6)
Injected packet length average = 1
Accepted packet length average = 1
Total in-flight flits = 73 (0 measured)
latency change    = 0.062078
throughput change = 0.00155376
Warmed up ...Time used is 3000 cycles
Class 0:
Packet latency average = 38.8667
	minimum = 7
	maximum = 114
Network latency average = 38.8073
	minimum = 7
	maximum = 114
Slowest packet = 137357
Flit latency average = 39.068
	minimum = 7
	maximum = 114
Slowest flit = 137357
Fragmentation average = 0
	minimum = 0
	maximum = 0
Injected packet rate average = 0.0995
	minimum = 0.089 (at node 14)
	maximum = 0.119 (at node 7)
Accepted packet rate average = 0.09925
	minimum = 0.071 (at node 10)
	maximum = 0.117 (at node 6)
Injected flit rate average = 0.0995
	minimum = 0.089 (at node 14)
	maximum = 0.119 (at node 7)
Accepted flit rate average= 0.09925
	minimum = 0.071 (at node 10)
	maximum = 0.117 (at node 6)
Injected packet length average = 1
Accepted packet length average = 1
Total in-flight flits = 77 (77 measured)
latency change    = 0.0228741
throughput change = 0.0132242
Class 0:
Packet latency average = 39.7045
	minimum = 7
	maximum = 148
Network latency average = 39.6656
	minimum = 7
	maximum = 148
Slowest packet = 137346
Flit latency average = 39.7752
	minimum = 7
	maximum = 148
Slowest flit = 137346
Fragmentation average = 0
	minimum = 0
	maximum = 0
Injected packet rate average = 0.100125
	minimum = 0.0895 (at node 15)
	maximum = 0.1125 (at node 7)
Accepted packet rate average = 0.100219
	minimum = 0.0875 (at node 5)
	maximum = 0.108 (at node 2)
Injected flit rate average = 0.100125
	minimum = 0.0895 (at node 15)
	maximum = 0.1125 (at node 7)
Accepted flit rate average= 0.100219
	minimum = 0.0875 (at node 5)
	maximum = 0.108 (at node 2)
Injected packet length average = 1
Accepted packet length average = 1
Total in-flight flits = 70 (70 measured)
latency change    = 0.0211025
throughput change = 0.00966635
Class 0:
Packet latency average = 39.3556
	minimum = 7
	maximum = 148
Network latency average = 39.3127
	minimum = 7
	maximum = 148
Slowest packet = 137346
Flit latency average = 39.3912
	minimum = 7
	maximum = 148
Slowest flit = 137346
Fragmentation average = 0
	minimum = 0
	maximum = 0
Injected packet rate average = 0.0995833
	minimum = 0.0916667 (at node 15)
	maximum = 0.112 (at node 7)
Accepted packet rate average = 0.100062
	minimum = 0.089 (at node 5)
	maximum = 0.107 (at node 6)
Injected flit rate average = 0.0995833
	minimum = 0.0916667 (at node 15)
	maximum = 0.112 (at node 7)
Accepted flit rate average= 0.100062
	minimum = 0.089 (at node 5)
	maximum = 0.107 (at node 6)
Injected packet length average = 1
Accepted packet length average = 1
Total in-flight flits = 50 (50 measured)
latency change    = 0.00886604
throughput change = 0.00156152
Draining all recorded packets ...
Draining remaining packets ...
Time taken is 6138 cycles
Class 0:
Packet latency average = 37.834
	minimum = 7
	maximum = 95
Network latency average = 37.7571
	minimum = 7
	maximum = 95
Slowest packet = 141497
Flit latency average = 37.7571
	minimum = 7
	maximum = 95
Slowest flit = 141497
Fragmentation average = 0
	minimum = 0
	maximum = 0
Injected packet rate average = 0.0973125
	minimum = 0.08 (at node 7)
	maximum = 0.11 (at node 2)
Accepted packet rate average = 0.092625
	minimum = 0.079 (at node 3)
	maximum = 0.104 (at node 2)
Injected flit rate average = 0.0973125
	minimum = 0.08 (at node 7)
	maximum = 0.11 (at node 2)
Accepted flit rate average= 0.092625
	minimum = 0.079 (at node 3)
	maximum = 0.104 (at node 2)
Injected packet length average = 1
Accepted packet length average = 1
Total in-flight flits = 75 (0 measured)
latency change    = 1
throughput change = 1
Class 0:
Packet latency average = 40.094
	minimum = 7
	maximum = 166
Network latency average = 39.9847
	minimum = 7
	maximum = 166
Slowest packet = 142876
Flit latency average = 39.9847
	minimum = 7
	maximum = 166
Slowest flit = 142876
Fragmentation average = 0
	minimum = 0
	maximum = 0
Injected packet rate average = 0.0995625
	minimum = 0.092 (at node 7)
	maximum = 0.1115 (at node 2)
Accepted packet rate average = 0.0980937
	minimum = 0.0885 (at node 3)
	maximum = 0.108 (at node 2)
Injected flit rate average = 0.0995625
	minimum = 0.092 (at node 7)
	maximum = 0.1115 (at node 2)
Accepted flit rate average= 0.0980937
	minimum = 0.0885 (at node 3)
	maximum = 0.108 (at node 2)
Injected packet length average = 1
Accepted packet length average = 1
Total in-flight flits = 47 (0 measured)
latency change    = 0.0563668
throughput change = 0.0557502
Class 0:
Packet latency average = 37.2567
	minimum = 7
	maximum = 106
Network latency average = 37.2516
	minimum = 7
	maximum = 106
Slowest packet = 145528
Flit latency average = 37.2516
	minimum = 7
	maximum = 106
Slowest flit = 145528
Fragmentation average = 0
	minimum = 0
	maximum = 0
Injected packet rate average = 0.0988125
	minimum = 0.071 (at node 14)
	maximum = 0.119 (at node 15)
Accepted packet rate average = 0.097625
	minimum = 0.074 (at node 7)
	maximum = 0.114 (at node 6)
Injected flit rate average = 0.0988125
	minimum = 0.071 (at node 14)
	maximum = 0.119 (at node 15)
Accepted flit rate average= 0.097625
	minimum = 0.074 (at node 7)
	maximum = 0.114 (at node 6)
Injected packet length average = 1
Accepted packet length average = 1
Total in-flight flits = 66 (0 measured)
latency change    = 0.0761542
throughput change = 0.00480154
Warmed up ...Time used is 3000 cycles
Class 0:
Packet latency average = 45.5626
	minimum = 7
	maximum = 321
Network latency average = 41.5168
	minimum = 7
	maximum = 256
Slowest packet = 145703
Flit latency average = 42.8789
	minimum = 7
	maximum = 279
Slowest flit = 145686
Fragmentation average = 0
	minimum = 0
	maximum = 0
Injected packet rate average = 0.0969375
	minimum = 0.09 (at node 1)
	maximum = 0.115 (at node 3)
Accepted packet rate average = 0.097
	minimum = 0.076 (at node 9)
	maximum = 0.113 (at node 7)
Injected flit rate average = 0.0969375
	minimum = 0.09 (at node 1)
	maximum = 0.115 (at node 3)
Accepted flit rate average= 0.097
	minimum = 0.076 (at node 9)
	maximum = 0.113 (at node 7)
Injected packet length average = 1
Accepted packet length average = 1
Total in-flight flits = 65 (65 measured)
latency change    = 0.182296
throughput change = 0.0064433
Class 0:
Packet latency average = 45.3132
	minimum = 7
	maximum = 321
Network latency average = 42.96
	minimum = 7
	maximum = 256
Slowest packet = 145703
Flit latency average = 43.5875
	minimum = 7
	maximum = 279
Slowest flit = 145686
Fragmentation average = 0
	minimum = 0
	maximum = 0
Injected packet rate average = 0.100531
	minimum = 0.0905 (at node 9)
	maximum = 0.108 (at node 12)
Accepted packet rate average = 0.100531
[...]
	minimum = 0.0876667 (at node 5)
	maximum = 0.108333 (at node 6)
Injected flit rate average = 0.101521
	minimum = 0.094 (at node 14)
	maximum = 0.120333 (at node 1)
Accepted flit rate average= 0.101542
	minimum = 0.0876667 (at node 5)
	maximum = 0.108333 (at node 6)
Injected packet length average = 1
Accepted packet length average = 1
Total in-flight flits = 58 (58 measured)
latency change    = 0.000541478
throughput change = 0.010874
Class 0:
Packet latency average = 40.4812
	minimum = 7
	maximum = 172
Network latency average = 40.4014
	minimum = 7
	maximum = 172
Slowest packet = 1066165
Flit latency average = 40.4122
	minimum = 7
	maximum = 172
Slowest flit = 1066165
Fragmentation average = 0
	minimum = 0
	maximum = 0
Injected packet rate average = 0.100484
	minimum = 0.09475 (at node 7)
	maximum = 0.1135 (at node 1)
Accepted packet rate average = 0.100219
	minimum = 0.0935 (at node 5)
	maximum = 0.10975 (at node 6)
Injected flit rate average = 0.100484
	minimum = 0.09475 (at node 7)
	maximum = 0.1135 (at node 1)
Accepted flit rate average= 0.100219
	minimum = 0.0935 (at node 5)
	maximum = 0.10975 (at node 6)
Injected packet length average = 1
Accepted packet length average = 1
Total in-flight flits = 77 (77 measured)
latency change    = 0.00773684
throughput change = 0.0132003
Draining all recorded packets ...
Draining remaining packets ...
Time taken is 7184 cycles
Class 0:
Packet latency average = 37.9088
	minimum = 7
	maximum = 120
Network latency average = 37.896
	minimum = 7
	maximum = 120
Slowest packet = 1066879
Flit latency average = 37.896
	minimum = 7
	maximum = 120
Slowest flit = 1066879
Fragmentation average = 0
	minimum = 0
	maximum = 0
Injected packet rate average = 0.100125
	minimum = 0.087 (at node 8)
	maximum = 0.115 (at node 1)
Accepted packet rate average = 0.0973125
	minimum = 0.08 (at node 12)
	maximum = 0.107 (at node 10)
Injected flit rate average = 0.100125
	minimum = 0.087 (at node 8)
	maximum = 0.115 (at node 1)
Accepted flit rate average= 0.0973125
	minimum = 0.08 (at node 12)
	maximum = 0.107 (at node 10)
Injected packet length average = 1
Accepted packet length average = 1
Total in-flight flits = 45 (0 measured)
latency change    = 1
throughput change = 1
Class 0:
Packet latency average = 37.9372
	minimum = 7
	maximum = 120
Network latency average = 37.9286
	minimum = 7
	maximum = 120
Slowest packet = 1066879
Flit latency average = 37.9286
	minimum = 7
	maximum = 120
Slowest flit = 1066879
Fragmentation average = 0
	minimum = 0
	maximum = 0
Injected packet rate average = 0.0991563
	minimum = 0.0875 (at node 8)
	maximum = 0.109 (at node 3)
Accepted packet rate average = 0.0975625
	minimum = 0.0895 (at node 5)
	maximum = 0.109 (at node 10)
Injected flit rate average = 0.0991563
	minimum = 0.0875 (at node 8)
	maximum = 0.109 (at node 3)
Accepted flit rate average= 0.0975625
	minimum = 0.0895 (at node 5)
	maximum = 0.109 (at node 10)
Injected packet length average = 1
Accepted packet length average = 1
Total in-flight flits = 51 (0 measured)
latency change    = 0.000749152
throughput change = 0.00256246
Class 0:
Packet latency average = 40.2541
	minimum = 7
	maximum = 118
Network latency average = 40.2209
	minimum = 7
	maximum = 118
Slowest packet = 1070691
Flit latency average = 40.2209
	minimum = 7
	maximum = 118
Slowest flit = 1070691
Fragmentation average = 0
	minimum = 0
	maximum = 0
Injected packet rate average = 0.100875
	minimum = 0.08 (at node 15)
	maximum = 0.115 (at node 2)
Accepted packet rate average = 0.099875
	minimum = 0.085 (at node 10)
	maximum = 0.117 (at node 14)
Injected flit rate average = 0.100875
	minimum = 0.08 (at node 15)
	maximum = 0.115 (at node 2)
Accepted flit rate average= 0.099875
	minimum = 0.085 (at node 10)
	maximum = 0.117 (at node 14)
Injected packet length average = 1
Accepted packet length average = 1
Total in-flight flits = 67 (0 measured)
latency change    = 0.0575556
throughput change = 0.0231539
Warmed up ...Time used is 3000 cycles
Class 0:
Packet latency average = 37.3482
	minimum = 7
	maximum = 133
Network latency average = 37.3372
	minimum = 7
	maximum = 133
Slowest packet = 1071745
Flit latency average = 37.6936
	minimum = 7
	maximum = 133
Slowest flit = 1071745
Fragmentation average = 0
	minimum = 0
	maximum = 0
Injected packet rate average = 0.10075
	minimum = 0.087 (at node 5)
	maximum = 0.119 (at node 12)
Accepted packet rate average = 0.100562
	minimum = 0.087 (at node 7)
	maximum = 0.125 (at node 14)
Injected flit rate average = 0.10075
	minimum = 0.087 (at node 5)
	maximum = 0.119 (at node 12)
Accepted flit rate average= 0.100562
	minimum = 0.087 (at node 7)
	maximum = 0.125 (at node 14)
Injected packet length average = 1
Accepted packet length average = 1
Total in-flight flits = 70 (70 measured)
latency change    = 0.0778033
throughput change = 0.00683654
Class 0:
Packet latency average = 38.3985
	minimum = 7
	maximum = 143
Network latency average = 38.3755
	minimum = 7
	maximum = 143
Slowest packet = 1074273
Flit latency average = 38.533
	minimum = 7
	maximum = 143
Slowest flit = 1074273
Fragmentation average = 0
	minimum = 0
	maximum = 0
Injected packet rate average = 0.09975
	minimum = 0.089 (at node 14)
	maximum = 0.11 (at node 15)
Accepted packet rate average = 0.0999687
	minimum = 0.0875 (at node 1)
	maximum = 0.112 (at node 14)
Injected flit rate average = 0.09975
	minimum = 0.089 (at node 14)
	maximum = 0.11 (at node 15)
Accepted flit rate average= 0.0999687
	minimum = 0.0875 (at node 1)
	maximum = 0.112 (at node 14)
Injected packet length average = 1
Accepted packet length average = 1
Total in-flight flits = 60 (60 measured)
latency change    = 0.0273505
throughput change = 0.00593936
Class 0:
Packet latency average = 38.7917
	minimum = 7
	maximum = 143
Network latency average = 38.774
	minimum = 7
	maximum = 143
Slowest packet = 1074273
Flit latency average = 38.8731
	minimum = 7
	maximum = 143
Slowest flit = 1074273
Fragmentation average = 0
	minimum = 0
	maximum = 0
Injected packet rate average = 0.100292
	minimum = 0.0883333 (at node 14)
	maximum = 0.107667 (at node 13)
Accepted packet rate average = 0.100292
	minimum = 0.093 (at node 8)
	maximum = 0.108667 (at node 3)
Injected flit rate average = 0.100292
	minimum = 0.0883333 (at node 14)
	maximum = 0.107667 (at node 13)
Accepted flit rate average= 0.100292
	minimum = 0.093 (at node 8)
	maximum = 0.108667 (at node 3)
Injected packet length average = 1
Accepted packet length average = 1
Total in-flight flits = 67 (67 measured)
latency change    = 0.010136
throughput change = 0.00321978
Class 0:
Packet latency average = 38.7651
	minimum = 7
	maximum = 143
Network latency average = 38.7081
	minimum = 7
	maximum = 143
Slowest packet = 1074273
Flit latency average = 38.7836
	minimum = 7
	maximum = 143
Slowest flit = 1074273
Fragmentation average = 0
	minimum = 0
	maximum = 0
Injected packet rate average = 0.0997031
	minimum = 0.09025 (at node 6)
	maximum = 0.10825 (at node 5)
Accepted packet rate average = 0.0997656
	minimum = 0.092 (at node 9)
	maximum = 0.1065 (at node 2)
Injected flit rate average = 0.0997031
	minimum = 0.09025 (at node 6)
	maximum = 0.10825 (at node 5)
Accepted flit rate average= 0.0997656
	minimum = 0.092 (at node 9)
	maximum = 0.1065 (at node 2)
Injected packet length average = 1
Accepted packet length average = 1
Total in-flight flits = 63 (63 measured)
latency change    = 0.000684697
throughput change = 0.00527277
Draining all recorded packets ...
Draining remaining packets ...
Time taken is 7111 cycles
Class 0:
Packet latency average = 38.327
	minimum = 7
	maximum = 91
Network latency average = 38.2962
	minimum = 7
	maximum = 91
Slowest packet = 1078625
Flit latency average = 38.2962
	minimum = 7
	maximum = 91
Slowest flit = 1078625
Fragmentation average = 0
	minimum = 0
	maximum = 0
Injected packet rate average = 0.0998125
	minimum = 0.077 (at node 8)
	maximum = 0.119 (at node 1)
Accepted packet rate average = 0.095375
	minimum = 0.083 (at node 4)
	maximum = 0.116 (at node 8)
Injected flit rate average = 0.0998125
	minimum = 0.077 (at node 8)
	maximum = 0.119 (at node 1)
Accepted flit rate average= 0.095375
	minimum = 0.083 (at node 4)
	maximum = 0.116 (at node 8)
Injected packet length average = 1
Accepted packet length average = 1
Total in-flight flits = 71 (0 measured)
latency change    = 1
throughput change = 1
Class 0:
Packet latency average = 37.9794
	minimum = 7
	maximum = 106
Network latency average = 37.9642
	minimum = 7
	maximum = 106
Slowest packet = 1079806
Flit latency average = 37.9642
	minimum = 7
	maximum = 106
Slowest flit = 1079806
Fragmentation average = 0
	minimum = 0
	maximum = 0
Injected packet rate average = 0.0993125
	minimum = 0.083 (at node 8)
	maximum = 0.116 (at node 1)
Accepted packet rate average = 0.097
	minimum = 0.0855 (at node 14)
	maximum = 0.111 (at node 8)
Injected flit rate average = 0.0993125
	minimum = 0.083 (at node 8)
	maximum = 0.116 (at node 1)
Accepted flit rate average= 0.097
	minimum = 0.0855 (at node 14)
	maximum = 0.111 (at node 8)
Injected packet length average = 1
Accepted packet length average = 1
Total in-flight flits = 74 (0 measured)
latency change    = 0.00915279
throughput change = 0.0167526
Class 0:
Packet latency average = 38.7042
	minimum = 7
	maximum = 123
Network latency average = 38.6968
	minimum = 7
	maximum = 123
Slowest packet = 1081062
Flit latency average = 38.6968
	minimum = 7
	maximum = 123
Slowest flit = 1081062
Fragmentation average = 0
	minimum = 0
	maximum = 0
Injected packet rate average = 0.100562
	minimum = 0.085 (at node 9)
	maximum = 0.127 (at node 4)
Accepted packet rate average = 0.101625
	minimum = 0.088 (at node 11)
	maximum = 0.111 (at node 2)
Injected flit rate average = 0.100562
	minimum = 0.085 (at node 9)
	maximum = 0.127 (at node 4)
Accepted flit rate average= 0.101625
	minimum = 0.088 (at node 11)
	maximum = 0.111 (at node 2)
Injected packet length average = 1
Accepted packet length average = 1
Total in-flight flits = 57 (0 measured)
latency change    = 0.0187267
throughput change = 0.0455105
Warmed up ...Time used is 3000 cycles
Class 0:
Packet latency average = 39.1379
	minimum = 7
	maximum = 114
Network latency average = 39.1113
	minimum = 7
	maximum = 114
Slowest packet = 1082812
Flit latency average = 39.2798
	minimum = 7
	maximum = 114
Slowest flit = 1082812
Fragmentation average = 0
	minimum = 0
	maximum = 0
Injected packet rate average = 0.099625
	minimum = 0.085 (at node 10)
	maximum = 0.113 (at node 9)
Accepted packet rate average = 0.099625
	minimum = 0.085 (at node 5)
	maximum = 0.116 (at node 9)
Injected flit rate average = 0.099625
	minimum = 0.085 (at node 10)
	maximum = 0.113 (at node 9)
Accepted flit rate average= 0.099625
	minimum = 0.085 (at node 5)
	maximum = 0.116 (at node 9)
Injected packet length average = 1
Accepted packet length average = 1
Total in-flight flits = 57 (57 measured)
latency change    = 0.0110826
throughput change = 0.0200753
Class 0:
Packet latency average = 39.2479
	minimum = 7
	maximum = 114
Network latency average = 39.2126
	minimum = 7
	maximum = 114
Slowest packet = 1082812
Flit latency average = 39.2946
	minimum = 7
	maximum = 114
Slowest flit = 1082812
Fragmentation average = 0
	minimum = 0
	maximum = 0
Injected packet rate average = 0.100156
	minimum = 0.087 (at node 4)
	maximum = 0.113 (at node 0)
Accepted packet rate average = 0.10025
	minimum = 0.089 (at node 2)
	maximum = 0.112 (at node 15)
Injected flit rate average = 0.100156
	minimum = 0.087 (at node 4)
	maximum = 0.113 (at node 0)
Accepted flit rate average= 0.10025
	minimum = 0.089 (at node 2)
	maximum = 0.112 (at node 15)
Injected packet length average = 1
Accepted packet length average = 1
Total in-flight flits = 54 (54 measured)
latency change    = 0.00280084
throughput change = 0.00623441
Class 0:
Packet latency average = 38.962
	minimum = 7
	maximum = 114
Network latency average = 38.9307
	minimum = 7
	maximum = 114
Slowest packet = 1082812
Flit latency average = 38.9889
	minimum = 7
	maximum = 114
Slowest flit = 1082812
Fragmentation average = 0
	minimum = 0
	maximum = 0
Injected packet rate average = 0.0996875
	minimum = 0.0926667 (at node 14)
	maximum = 0.108667 (at node 8)
Accepted packet rate average = 0.0998125
	minimum = 0.0876667 (at node 11)
	maximum = 0.108 (at node 15)
Injected flit rate average = 0.0996875
	minimum = 0.0926667 (at node 14)
	maximum = 0.108667 (at node 8)
Accepted flit rate average= 0.0998125
	minimum = 0.0876667 (at node 11)
	maximum = 0.108 (at node 15)
Injected packet length average = 1
Accepted packet length average = 1
Total in-flight flits = 51 (51 measured)
latency change    = 0.00733743
throughput change = 0.00438322
Draining all recorded packets ...
Draining remaining packets ...
Time taken is 6118 cycles
Class 0:
Packet latency average = 37.7104
	minimum = 7
	maximum = 110
Network latency average = 37.6764
	minimum = 7
	maximum = 110
Slowest packet = 1088456
Flit latency average = 37.6764
	minimum = 7
	maximum = 110
Slowest flit = 1088456
Fragmentation average = 0
	minimum = 0
	maximum = 0
Injected packet rate average = 0.094125
	minimum = 0.079 (at node 11)
	maximum = 0.108 (at node 9)
Accepted packet rate average = 0.09
	minimum = 0.075 (at node 0)
	maximum = 0.102 (at node 13)
Injected flit rate average = 0.094125
	minimum = 0.079 (at node 11)
	maximum = 0.108 (at node 9)
Accepted flit rate average= 0.09
	minimum = 0.075 (at node 0)
	maximum = 0.102 (at node 13)
Injected packet length average = 1
Accepted packet length average = 1
Total in-flight flits = 66 (0 measured)
latency change    = 1
throughput change = 1
Class 0:
Packet latency average = 39.1524
	minimum = 7
	maximum = 150
Network latency average = 39.0208
	minimum = 7
	maximum = 150
Slowest packet = 1089141
Flit latency average = 39.0208
	minimum = 7
	maximum = 150
Slowest flit = 1089141
Fragmentation average = 0
	minimum = 0
	maximum = 0
Injected packet rate average = 0.0980625
	minimum = 0.0865 (at node 15)
	maximum = 0.108 (at node 4)
Accepted packet rate average = 0.0959688
	minimum = 0.0775 (at node 0)
	maximum = 0.1095 (at node 9)
Injected flit rate average = 0.0980625
	minimum = 0.0865 (at node 15)
	maximum = 0.108 (at node 4)
Accepted flit rate average= 0.0959688
	minimum = 0.0775 (at node 0)
	maximum = 0.1095 (at node 9)
Injected packet length average = 1
Accepted packet length average = 1
Total in-flight flits = 67 (0 measured)
latency change    = 0.0368298
throughput change = 0.0621947
Class 0:
Packet latency average = 38.7709
	minimum = 7
	maximum = 131
Network latency average = 38.7647
	minimum = 7
	maximum = 131
Slowest packet = 1090639
Flit latency average = 38.7647
	minimum = 7
	maximum = 131
Slowest flit = 1090639
Fragmentation average = 0
	minimum = 0
	maximum = 0
Injected packet rate average = 0.102438
	minimum = 0.095 (at node 5)
	maximum = 0.126 (at node 9)
Accepted packet rate average = 0.100687
	minimum = 0.085 (at node 4)
	maximum = 0.113 (at node 7)
Injected flit rate average = 0.102438
	minimum = 0.095 (at node 5)
	maximum = 0.126 (at node 9)
Accepted flit rate average= 0.100687
	minimum = 0.085 (at node 4)
	maximum = 0.113 (at node 7)
Injected packet length average = 1
Accepted packet length average = 1
Total in-flight flits = 95 (0 measured)
latency change    = 0.00983839
throughput change = 0.0468653
Warmed up ...Time used is 3000 cycles
Class 0:
Packet latency average = 41.4089
	minimum = 7
	maximum = 162
Network latency average = 40.9456
	minimum = 7
	maximum = 162
Slowest packet = 1092561
Flit latency average = 41.8407
	minimum = 7
	maximum = 162
Slowest flit = 1092561
Fragmentation average = 0
	minimum = 0
	maximum = 0
Injected packet rate average = 0.101125
	minimum = 0.081 (at node 6)
	maximum = 0.12 (at node 14)
Accepted packet rate average = 0.102375
	minimum = 0.084 (at node 12)
	maximum = 0.12 (at node 7)
Injected flit rate average = 0.101125
	minimum = 0.081 (at node 6)
	maximum = 0.12 (at node 14)
Accepted flit rate average= 0.102375
	minimum = 0.084 (at node 12)
	maximum = 0.12 (at node 7)
Injected packet length average = 1
Accepted packet length average = 1
Total in-flight flits = 75 (75 measured)
latency change    = 0.0637059
throughput change = 0.0164835
Class 0:
Packet latency average = 40.656
	minimum = 7
	maximum = 162
Network latency average = 40.4055
	minimum = 7
	maximum = 162
Slowest packet = 1092561
Flit latency average = 40.8675
	minimum = 7
	maximum = 162
Slowest flit = 1092561
Fragmentation average = 0
	minimum = 0
	maximum = 0
Injected packet rate average = 0.102094
	minimum = 0.086 (at node 6)
	maximum = 0.1165 (at node 14)
Accepted packet rate average = 0.102625
	minimum = 0.0915 (at node 3)
	maximum = 0.1165 (at node 7)
Injected flit rate average = 0.102094
	minimum = 0.086 (at node 6)
	maximum = 0.1165 (at node 14)
Accepted flit rate average= 0.102625
	minimum = 0.0915 (at node 3)
	maximum = 0.1165 (at node 7)
Injected packet length average = 1
Accepted packet length average = 1
Total in-flight flits = 78 (78 measured)
latency change    = 0.0185197
throughput change = 0.00243605
Class 0:
Packet latency average = 39.992
	minimum = 7
	maximum = 162
Network latency average = 39.824
	minimum = 7
	maximum = 162
Slowest packet = 1092561
Flit latency average = 40.1475
	minimum = 7
	maximum = 162
Slowest flit = 1092561
Fragmentation average = 0
	minimum = 0
	maximum = 0
Injected packet rate average = 0.100396
	minimum = 0.089 (at node 6)
	maximum = 0.108 (at node 8)
Accepted packet rate average = 0.101271
	minimum = 0.0906667 (at node 2)
	maximum = 0.117 (at node 7)
Injected flit rate average = 0.100396
	minimum = 0.089 (at node 6)
	maximum = 0.108 (at node 8)
Accepted flit rate average= 0.101271
	minimum = 0.0906667 (at node 2)
	maximum = 0.117 (at node 7)
Injected packet length average = 1
Accepted packet length average = 1
Total in-flight flits = 53 (53 measured)
latency change    = 0.0166028
throughput change = 0.0133717
Class 0:
Packet latency average = 39.673
	minimum = 7
	maximum = 162
Network latency average = 39.5404
	minimum = 7
	maximum = 162
Slowest packet = 1092561
Flit latency average = 39.7907
	minimum = 7
	maximum = 162
Slowest flit = 1092561
Fragmentation average = 0
	minimum = 0
	maximum = 0
Injected packet rate average = 0.0995625
	minimum = 0.0855 (at node 6)
	maximum = 0.108 (at node 14)
Accepted packet rate average = 0.0998281
	minimum = 0.0905 (at node 2)
	maximum = 0.1165 (at node 7)
Injected flit rate average = 0.0995625
	minimum = 0.0855 (at node 6)
	maximum = 0.108 (at node 14)
Accepted flit rate average= 0.0998281
	minimum = 0.0905 (at node 2)
	maximum = 0.1165 (at node 7)
Injected packet length average = 1
Accepted packet length average = 1
Total in-flight flits = 78 (78 measured)
latency change    = 0.00804085
throughput change = 0.0144519
Draining all recorded packets ...
Draining remaining packets ...
Time taken is 7145 cycles
====== Overall Traffic Statistics ======
====== Traffic class 0 ======
Packet latency average = 39.8629 (100 samples)
	minimum = 7 (100 samples)
	maximum = 175.24 (100 samples)
Network latency average = 39.631 (100 samples)
	minimum = 7 (100 samples)
	maximum = 170.72 (100 samples)
Flit latency average = 39.691 (100 samples)
	minimum = 7 (100 samples)
	maximum = 171.74 (100 samples)
Fragmentation average = 0 (100 samples)
	minimum = 0 (100 samples)
	maximum = 0 (100 samples)
Injected packet rate average = 0.100235 (100 samples)
	minimum = 0.0917775 (100 samples)
	maximum = 0.109664 (100 samples)
Accepted packet rate average = 0.100259 (100 samples)
	minimum = 0.09116 (100 samples)
	maximum = 0.109554 (100 samples)
Injected flit rate average = 0.100235 (100 samples)
	minimum = 0.0917775 (100 samples)
	maximum = 0.109664 (100 samples)
Accepted flit rate average = 0.100259 (100 samples)
	minimum = 0.09116 (100 samples)
	maximum = 0.109554 (100 samples)
Injected packet size average = 1 (100 samples)
Accepted packet size average = 1 (100 samples)
Hops average = 5.99743 (100 samples)
Total run time 17.4833
