BEGIN Configuration File: /tmp/bs_1138183_754246.cfg
topology = mesh;
k = 4;
n = 2;
routing_function = valiant;
num_vcs = 4;
vc_buf_size = 4;
wait_for_tail_credit = 1;
vc_allocator = islip;
sw_allocator = islip;
alloc_iters = 1;
credit_delay = 2;
routing_delay = 1;
vc_alloc_delay = 1;
sw_alloc_delay = 1;
input_speedup = 2;
output_speedup = 1;
internal_speedup = 1.0;
traffic = transpose;
packet_size = 1;
sim_type = latency;
injection_rate = 0.01;
warmup_periods = 3;
sample_period = 1000;
sim_count = 100;
seed = 1;

END Configuration File: /tmp/bs_1138183_754246.cfg
Class 0:
Packet latency average = 32.3212
	minimum = 7
	maximum = 57
Network latency average = 32.3212
	minimum = 7
	maximum = 57
Slowest packet = 55
Flit latency average = 32.3212
	minimum = 7
	maximum = 57
Slowest flit = 55
Fragmentation average = 0
	minimum = 0
	maximum = 0
Injected packet rate average = 0.0108125
	minimum = 0.006 (at node 2)
	maximum = 0.019 (at node 7)
Accepted packet rate average = 0.0103125
	minimum = 0.006 (at node 8)
	maximum = 0.019 (at node 13)
Injected flit rate average = 0.0108125
	minimum = 0.006 (at node 2)
	maximum = 0.019 (at node 7)
Accepted flit rate average= 0.0103125
	minimum = 0.006 (at node 8)
	maximum = 0.019 (at node 13)
Injected packet length average = 1
Accepted packet length average = 1
Total in-flight flits = 8 (0 measured)
latency change    = 1
throughput change = 1
Class 0:
Packet latency average = 32.4738
	minimum = 7
	maximum = 58
Network latency average = 32.4738
	minimum = 7
	maximum = 58
Slowest packet = 319
Flit latency average = 32.4738
	minimum = 7
	maximum = 58
Slowest flit = 319
Fragmentation average = 0
	minimum = 0
	maximum = 0
Injected packet rate average = 0.0110312
	minimum = 0.0065 (at node 2)
	maximum = 0.014 (at node 7)
Accepted packet rate average = 0.01075
	minimum = 0.006 (at node 8)
	maximum = 0.014 (at node 3)
Injected flit rate average = 0.0110312
	minimum = 0.0065 (at node 2)
	maximum = 0.014 (at node 7)
Accepted flit rate average= 0.01075
	minimum = 0.006 (at node 8)
	maximum = 0.014 (at node 3)
Injected packet length average = 1
Accepted packet length average = 1
Total in-flight flits = 9 (0 measured)
latency change    = 0.00469994
throughput change = 0.0406977
Class 0:
Packet latency average = 32.2651
	minimum = 7
	maximum = 67
Network latency average = 32.2651
	minimum = 7
	maximum = 67
Slowest packet = 475
Flit latency average = 32.2651
	minimum = 7
	maximum = 67
Slowest flit = 475
Fragmentation average = 0
	minimum = 0
	maximum = 0
Injected packet rate average = 0.0100625
	minimum = 0.004 (at node 7)
	maximum = 0.018 (at node 14)
Accepted packet rate average = 0.010375
	minimum = 0.004 (at node 13)
	maximum = 0.019 (at node 11)
Injected flit rate average = 0.0100625
	minimum = 0.004 (at node 7)
	maximum = 0.018 (at node 14)
Accepted flit rate average= 0.010375
	minimum = 0.004 (at node 13)
	maximum = 0.019 (at node 11)
Injected packet length average = 1
Accepted packet length average = 1
Total in-flight flits = 4 (0 measured)
latency change    = 0.00647068
throughput change = 0.0361446
Warmed up ...Time used is 3000 cycles
Class 0:
Packet latency average = 31.381
	minimum = 7
	maximum = 67
Network latency average = 31.381
	minimum = 7
	maximum = 67
Slowest packet = 612
Flit latency average = 31.2649
	minimum = 7
	maximum = 67
Slowest flit = 612
Fragmentation average = 0
	minimum = 0
	maximum = 0
Injected packet rate average = 0.009375
	minimum = 0.006 (at node 0)
	maximum = 0.012 (at node 2)
Accepted packet rate average = 0.0094375
	minimum = 0.006 (at node 0)
	maximum = 0.012 (at node 8)
Injected flit rate average = 0.009375
	minimum = 0.006 (at node 0)
	maximum = 0.012 (at node 2)
Accepted flit rate average= 0.0094375
	minimum = 0.006 (at node 0)
	maximum = 0.012 (at node 8)
Injected packet length average = 1
Accepted packet length average = 1
Total in-flight flits = 3 (3 measured)
latency change    = 0.0281734
throughput change = 0.0993377
Class 0:
Packet latency average = 32.5191
	minimum = 7
	maximum = 67
Network latency average = 32.5191
	minimum = 7
	maximum = 67
Slowest packet = 612
Flit latency average = 32.4497
	minimum = 7
	maximum = 67
Slowest flit = 612
Fragmentation average = 0
	minimum = 0
	maximum = 0
Injected packet rate average = 0.00996875
	minimum = 0.007 (at node 10)
	maximum = 0.013 (at node 1)
Accepted packet rate average = 0.0099375
	minimum = 0.007 (at node 10)
	maximum = 0.013 (at node 13)
Injected flit rate average = 0.00996875
	minimum = 0.007 (at node 10)
	maximum = 0.013 (at node 1)
Accepted flit rate average= 0.0099375
	minimum = 0.007 (at node 10)
	maximum = 0.013 (at node 13)
Injected packet length average = 1
Accepted packet length average = 1
Total in-flight flits = 5 (5 measured)
latency change    = 0.0349996
throughput change = 0.0503145
Class 0:
Packet latency average = 32.5933
	minimum = 7
	maximum = 67
Network latency average = 32.5933
	minimum = 7
	maximum = 67
Slowest packet = 612
Flit latency average = 32.5441
	minimum = 7
	maximum = 67
Slowest flit = 612
Fragmentation average = 0
	minimum = 0
	maximum = 0
Injected packet rate average = 0.0095625
	minimum = 0.006 (at node 13)
	maximum = 0.0123333 (at node 2)
Accepted packet rate average = 0.00945833
	minimum = 0.00666667 (at node 7)
	maximum = 0.0113333 (at node 8)
Injected flit rate average = 0.0095625
	minimum = 0.006 (at node 13)
	maximum = 0.0123333 (at node 2)
Accepted flit rate average= 0.00945833
	minimum = 0.00666667 (at node 7)
	maximum = 0.0113333 (at node 8)
Injected packet length average = 1
Accepted packet length average = 1
Total in-flight flits = 9 (9 measured)
latency change    = 0.00227731
throughput change = 0.0506608
Class 0:
Packet latency average = 31.9319
	minimum = 7
	maximum = 67
Network latency average = 31.9319
	minimum = 7
	maximum = 67
Slowest packet = 612
Flit latency average = 31.8993
	minimum = 7
	maximum = 67
Slowest flit = 612
Fragmentation average = 0
	minimum = 0
	maximum = 0
Injected packet rate average = 0.00948437
	minimum = 0.00725 (at node 13)
	maximum = 0.01175 (at node 2)
Accepted packet rate average = 0.00946875
	minimum = 0.00775 (at node 5)
	maximum = 0.0115 (at node 8)
Injected flit rate average = 0.00948437
	minimum = 0.00725 (at node 13)
	maximum = 0.01175 (at node 2)
Accepted flit rate average= 0.00946875
	minimum = 0.00775 (at node 5)
	maximum = 0.0115 (at node 8)
Injected packet length average = 1
Accepted packet length average = 1
Total in-flight flits = 5 (5 measured)
latency change    = 0.0207141
throughput change = 0.00110011
Class 0:
Packet latency average = 31.9495
	minimum = 7
	maximum = 68
Network latency average = 31.9495
	minimum = 7
	maximum = 68
Slowest packet = 1196
Flit latency average = 31.924
	minimum = 7
	maximum = 68
Slowest flit = 1196
Fragmentation average = 0
	minimum = 0
	maximum = 0
Injected packet rate average = 0.0097
	minimum = 0.0084 (at node 1)
	maximum = 0.0118 (at node 4)
Accepted packet rate average = 0.0097
	minimum = 0.0084 (at node 2)
	maximum = 0.0114 (at node 1)
Injected flit rate average = 0.0097
	minimum = 0.0084 (at node 1)
	maximum = 0.0118 (at node 4)
Accepted flit rate average= 0.0097
	minimum = 0.0084 (at node 2)
	maximum = 0.0114 (at node 1)
Injected packet length average = 1
Accepted packet length average = 1
Total in-flight flits = 4 (4 measured)
latency change    = 0.0005505
throughput change = 0.0238402
Class 0:
Packet latency average = 32.016
	minimum = 7
	maximum = 68
Network latency average = 32.016
	minimum = 7
	maximum = 68
Slowest packet = 1196
Flit latency average = 31.9947
	minimum = 7
	maximum = 68
Slowest flit = 1196
Fragmentation average = 0
	minimum = 0
	maximum = 0
Injected packet rate average = 0.00978125
	minimum = 0.00833333 (at node 1)
	maximum = 0.0116667 (at node 4)
Accepted packet rate average = 0.00982292
	minimum = 0.0085 (at node 4)
	maximum = 0.0116667 (at node 1)
Injected flit rate average = 0.00978125
	minimum = 0.00833333 (at node 1)
	maximum = 0.0116667 (at node 4)
Accepted flit rate average= 0.00982292
	minimum = 0.0085 (at node 4)
	maximum = 0.0116667 (at node 1)
Injected packet length average = 1
Accepted packet length average = 1
Total in-flight flits = 0 (0 measured)
latency change    = 0.00207686
throughput change = 0.0125133
Draining all recorded packets ...
Draining remaining packets ...
Time taken is 9042 cycles
Class 0:
Packet latency average = 31.538
	minimum = 7
	maximum = 57
Network latency average = 31.538
	minimum = 7
	maximum = 57
Slowest packet = 1455
Flit latency average = 31.538
	minimum = 7
	maximum = 57
Slowest flit = 1455
Fragmentation average = 0
	minimum = 0
	maximum = 0
Injected packet rate average = 0.01025
	minimum = 0.007 (at node 4)
	maximum = 0.017 (at node 14)
Accepted packet rate average = 0.009875
	minimum = 0.006 (at node 6)
	maximum = 0.016 (at node 11)
Injected flit rate average = 0.01025
	minimum = 0.007 (at node 4)
	maximum = 0.017 (at node 14)
Accepted flit rate average= 0.009875
	minimum = 0.006 (at node 6)
	maximum = 0.016 (at node 11)
Injected packet length average = 1
Accepted packet length average = 1
Total in-flight flits = 6 (0 measured)
latency change    = 1
throughput change = 1
Class 0:
Packet latency average = 30.7898
	minimum = 7
	maximum = 57
Network latency average = 30.7898
	minimum = 7
	maximum = 57
Slowest packet = 1455
Flit latency average = 30.7898
	minimum = 7
	maximum = 57
Slowest flit = 1455
Fragmentation average = 0
	minimum = 0
	maximum = 0
Injected packet rate average = 0.00990625
	minimum = 0.0055 (at node 8)
	maximum = 0.0145 (at node 14)
Accepted packet rate average = 0.0098125
	minimum = 0.0055 (at node 2)
	maximum = 0.0145 (at node 11)
Injected flit rate average = 0.00990625
	minimum = 0.0055 (at node 8)
	maximum = 0.0145 (at node 14)
Accepted flit rate average= 0.0098125
	minimum = 0.0055 (at node 2)
	maximum = 0.0145 (at node 11)
Injected packet length average = 1
Accepted packet length average = 1
Total in-flight flits = 3 (0 measured)
latency change    = 0.0242991
throughput change = 0.00636943
Class 0:
Packet latency average = 32.8672
	minimum = 17
	maximum = 57
Network latency average = 32.8672
	minimum = 17
	maximum = 57
Slowest packet = 1789
Flit latency average = 32.8672
	minimum = 17
	maximum = 57
Slowest flit = 1789
Fragmentation average = 0
	minimum = 0
	maximum = 0
Injected packet rate average = 0.0083125
	minimum = 0.005 (at node 3)
	maximum = 0.017 (at node 9)
Accepted packet rate average = 0.008
	minimum = 0.004 (at node 12)
	maximum = 0.016 (at node 6)
Injected flit rate average = 0.0083125
	minimum = 0.005 (at node 3)
	maximum = 0.017 (at node 9)
Accepted flit rate average= 0.008
	minimum = 0.004 (at node 12)
	maximum = 0.016 (at node 6)
Injected packet length average = 1
Accepted packet length average = 1
Total in-flight flits = 8 (0 measured)
latency change    = 0.0632052
throughput change = 0.226562
Warmed up ...Time used is 3000 cycles
Class 0:
Packet latency average = 31.5163
	minimum = 7
	maximum = 57
Network latency average = 31.5163
	minimum = 7
	maximum = 57
Slowest packet = 1918
Flit latency average = 31.5652
	minimum = 7
	maximum = 57
Slowest flit = 1918
Fragmentation average = 0
	minimum = 0
	maximum = 0
Injected packet rate average = 0.01
	minimum = 0.004 (at node 0)
	maximum = 0.015 (at node 8)
Accepted packet rate average = 0.0100625
	minimum = 0.003 (at node 0)
	maximum = 0.015 (at node 1)
Injected flit rate average = 0.01
	minimum = 0.004 (at node 0)
	maximum = 0.015 (at node 8)
Accepted flit rate average= 0.0100625
	minimum = 0.003 (at node 0)
	maximum = 0.015 (at node 1)
Injected packet length average = 1
Accepted packet length average = 1
Total in-flight flits = 7 (7 measured)
latency change    = 0.0428618
throughput change = 0.204969
Class 0:
Packet latency average = 32.6436
	minimum = 7
	maximum = 68
Network latency average = 32.6436
	minimum = 7
	maximum = 68
Slowest packet = 2079
Flit latency average = 32.6397
	minimum = 7
	maximum = 68
Slowest flit = 2079
Fragmentation average = 0
	minimum = 0
	maximum = 0
Injected packet rate average = 0.00915625
	minimum = 0.006 (at node 0)
	maximum = 0.011 (at node 8)
Accepted packet rate average = 0.00928125
	minimum = 0.006 (at node 0)
	maximum = 0.0125 (at node 1)
Injected flit rate average = 0.00915625
	minimum = 0.006 (at node 0)
	maximum = 0.011 (at node 8)
Accepted flit rate average= 0.00928125
	minimum = 0.006 (at node 0)
	maximum = 0.0125 (at node 1)
Injected packet length average = 1
Accepted packet length average = 1
Total in-flight flits = 4 (4 measured)
latency change    = 0.0345323
throughput change = 0.0841751
Class 0:
Packet latency average = 32.2574
	minimum = 7
	maximum = 68
Network latency average = 32.2574
	minimum = 7
	maximum = 68
Slowest packet = 2079
Flit latency average = 32.2617
	minimum = 7
	maximum = 68
Slowest flit = 2079
Fragmentation average = 0
	minimum = 0
	maximum = 0
Injected packet rate average = 0.00933333
	minimum = 0.00733333 (at node 0)
	maximum = 0.012 (at node 8)
Accepted packet rate average = 0.0093125
	minimum = 0.007 (at node 8)
	maximum = 0.0116667 (at node 1)
Injected flit rate average = 0.00933333
	minimum = 0.00733333 (at node 0)
	maximum = 0.012 (at node 8)
Accepted flit rate average= 0.0093125
	minimum = 0.007 (at node 8)
	maximum = 0.0116667 (at node 1)
Injected packet length average = 1
Accepted packet length average = 1
Total in-flight flits = 9 (9 measured)
latency change    = 0.0119723
throughput change = 0.0033557
Class 0:
Packet latency average = 31.9748
	minimum = 7
	maximum = 68
Network latency average = 31.9748
	minimum = 7
	maximum = 68
Slowest packet = 2079
Flit latency average = 31.9818
	minimum = 7
	maximum = 68
Slowest flit = 2079
Fragmentation average = 0
	minimum = 0
	maximum = 0
Injected packet rate average = 0.00935937
	minimum = 0.00775 (at node 2)
	maximum = 0.01125 (at node 8)
Accepted packet rate average = 0.00942187
	minimum = 0.0075 (at node 8)
	maximum = 0.01125 (at node 2)
Injected flit rate average = 0.00935937
	minimum = 0.00775 (at node 2)
	maximum = 0.01125 (at node 8)
Accepted flit rate average= 0.00942187
	minimum = 0.0075 (at node 8)
	maximum = 0.01125 (at node 2)
Injected packet length average = 1
Accepted packet length average = 1
Total in-flight flits = 4 (4 measured)
latency change    = 0.00883863
throughput change = 0.0116086
Class 0:
Packet latency average = 31.8672
	minimum = 7
	maximum = 68
Network latency average = 31.8672
	minimum = 7
	maximum = 68
Slowest packet = 2079
Flit latency average = 31.8739
	minimum = 7
	maximum = 68
Slowest flit = 2079
Fragmentation average = 0
	minimum = 0
	maximum = 0
Injected packet rate average = 0.00955
	minimum = 0.0076 (at node 0)
	maximum = 0.0116 (at node 15)
Accepted packet rate average = 0.0095125
	minimum = 0.0076 (at node 0)
	maximum = 0.0116 (at node 1)
Injected flit rate average = 0.00955
	minimum = 0.0076 (at node 0)
	maximum = 0.0116 (at node 15)
Accepted flit rate average= 0.0095125
	minimum = 0.0076 (at node 0)
	maximum = 0.0116 (at node 1)
Injected packet length average = 1
Accepted packet length average = 1
Total in-flight flits = 11 (11 measured)
latency change    = 0.00337626
throughput change = 0.00952694
Draining all recorded packets ...
Draining remaining packets ...
Time taken is 8097 cycles
Class 0:
Packet latency average = 31.25
	minimum = 7
	maximum = 58
Network latency average = 31.25
	minimum = 7
	maximum = 58
Slowest packet = 2757
Flit latency average = 31.25
	minimum = 7
	maximum = 58
Slowest flit = 2757
Fragmentation average = 0
	minimum = 0
	maximum = 0
Injected packet rate average = 0.0096875
	minimum = 0.005 (at node 8)
	maximum = 0.017 (at node 10)
Accepted packet rate average = 0.00925
	minimum = 0.005 (at node 2)
	maximum = 0.016 (at node 10)
Injected flit rate average = 0.0096875
	minimum = 0.005 (at node 8)
	maximum = 0.017 (at node 10)
Accepted flit rate average= 0.00925
	minimum = 0.005 (at node 2)
	maximum = 0.016 (at node 10)
Injected packet length average = 1
Accepted packet length average = 1
Total in-flight flits = 7 (0 measured)
latency change    = 1
throughput change = 1
Class 0:
Packet latency average = 32.783
	minimum = 7
	maximum = 67
Network latency average = 32.783
	minimum = 7
	maximum = 67
Slowest packet = 2834
Flit latency average = 32.783
	minimum = 7
	maximum = 67
Slowest flit = 2834
Fragmentation average = 0
	minimum = 0
	maximum = 0
Injected packet rate average = 0.0101563
	minimum = 0.0065 (at node 1)
	maximum = 0.0135 (at node 14)
Accepted packet rate average = 0.0099375
	minimum = 0.006 (at node 2)
	maximum = 0.0135 (at node 11)
Injected flit rate average = 0.0101563
	minimum = 0.0065 (at node 1)
	maximum = 0.0135 (at node 14)
Accepted flit rate average= 0.0099375
	minimum = 0.006 (at node 2)
	maximum = 0.0135 (at node 11)
Injected packet length average = 1
Accepted packet length average = 1
Total in-flight flits = 7 (0 measured)
latency change    = 0.0467626
throughput change = 0.0691824
Class 0:
Packet latency average = 31.2711
	minimum = 7
	maximum = 67
Network latency average = 31.2711
	minimum = 7
	maximum = 67
Slowest packet = 3133
Flit latency average = 31.2711
	minimum = 7
	maximum = 67
Slowest flit = 3133
Fragmentation average = 0
	minimum = 0
	maximum = 0
Injected packet rate average = 0.0101875
	minimum = 0.003 (at node 3)
	maximum = 0.018 (at node 4)
Accepted packet rate average = 0.010375
	minimum = 0.003 (at node 12)
	maximum = 0.018 (at node 1)
Injected flit rate average = 0.0101875
	minimum = 0.003 (at node 3)
	maximum = 0.018 (at node 4)
Accepted flit rate average= 0.010375
	minimum = 0.003 (at node 12)
	maximum = 0.018 (at node 1)
Injected packet length average = 1
Accepted packet length average = 1
Total in-flight flits = 4 (0 measured)
latency change    = 0.0483493
throughput change = 0.0421687
Warmed up ...Time used is 3000 cycles
Class 0:
Packet latency average = 32.0142
	minimum = 7
	maximum = 68
Network latency average = 32.0142
	minimum = 7
	maximum = 68
Slowest packet = 3242
Flit latency average = 32.0828
	minimum = 7
	maximum = 68
Slowest flit = 3242
Fragmentation average = 0
	minimum = 0
	maximum = 0
Injected packet rate average = 0.0091875
	minimum = 0.003 (at node 0)
	maximum = 0.013 (at node 5)
Accepted packet rate average = 0.0090625
	minimum = 0.003 (at node 0)
	maximum = 0.013 (at node 14)
Injected flit rate average = 0.0091875
	minimum = 0.003 (at node 0)
	maximum = 0.013 (at node 5)
Accepted flit rate average= 0.0090625
	minimum = 0.003 (at node 0)
	maximum = 0.013 (at node 14)
Injected packet length average = 1
Accepted packet length average = 1
Total in-flight flits = 6 (6 measured)
latency change    = 0.0232116
throughput change = 0.144828
Class 0:
Packet latency average = 32.1994
	minimum = 7
	maximum = 68
Network latency average = 32.1994
	minimum = 7
	maximum = 68
Slowest packet = 3242
Flit latency average = 32.2281
	minimum = 7
	maximum = 68
Slowest flit = 3242
Fragmentation average = 0
	minimum = 0
	maximum = 0
Injected packet rate average = 0.010125
	minimum = 0.005 (at node 0)
	maximum = 0.0155 (at node 13)
Accepted packet rate average = 0.01
	minimum = 0.005 (at node 0)
	maximum = 0.0145 (at node 7)
Injected flit rate average = 0.010125
	minimum = 0.005 (at node 0)
	maximum = 0.0155 (at node 13)
Accepted flit rate average= 0.01
	minimum = 0.005 (at node 0)
	maximum = 0.0145 (at node 7)
Injected packet length average = 1
Accepted packet length average = 1
Total in-flight flits = 8 (8 measured)
latency change    = 0.00575113
throughput change = 0.09375
Class 0:
Packet latency average = 32.1113
	minimum = 7
	maximum = 68
Network latency average = 32.1113
	minimum = 7
	maximum = 68
Slowest packet = 3242
Flit latency average = 32.1313
	minimum = 7
	maximum = 68
Slowest flit = 3242
Fragmentation average = 0
	minimum = 0
	maximum = 0
Injected packet rate average = 0.01
	minimum = 0.00533333 (at node 14)
	maximum = 0.0123333 (at node 13)
Accepted packet rate average = 0.01
	minimum = 0.00533333 (at node 11)
	maximum = 0.0123333 (at node 7)
Injected flit rate average = 0.01
	minimum = 0.00533333 (at node 14)
	maximum = 0.0123333 (at node 13)
Accepted flit rate average= 0.01
	minimum = 0.00533333 (at node 11)
	maximum = 0.0123333 (at node 7)
Injected packet length average = 1
Accepted packet length average = 1
Total in-flight flits = 4 (4 measured)
latency change    = 0.00274117
throughput change = 0
Class 0:
Packet latency average = 32.1484
	minimum = 7
	maximum = 68
Network latency average = 32.1484
	minimum = 7
	maximum = 68
Slowest packet = 3242
Flit latency average = 32.163
	minimum = 7
	maximum = 68
Slowest flit = 3242
Fragmentation average = 0
	minimum = 0
	maximum = 0
Injected packet rate average = 0.0100625
	minimum = 0.007 (at node 14)
	maximum = 0.0125 (at node 13)
Accepted packet rate average = 0.0100625
	minimum = 0.007 (at node 11)
	maximum = 0.0125 (at node 7)
Injected flit rate average = 0.0100625
	minimum = 0.007 (at node 14)
	maximum = 0.0125 (at node 13)
Accepted flit rate average= 0.0100625
	minimum = 0.007 (at node 11)
	maximum = 0.0125 (at node 7)
Injected packet length average = 1
Accepted packet length average = 1
Total in-flight flits = 4 (4 measured)
latency change    = 0.0011538
throughput change = 0.00621118
Class 0:
Packet latency average = 32.2335
	minimum = 7
	maximum = 68
Network latency average = 32.2335
	minimum = 7
	maximum = 68
Slowest packet = 3242
Flit latency average = 32.2449
	minimum = 7
	maximum = 68
Slowest flit = 3242
Fragmentation average = 0
	minimum = 0
	maximum = 0
Injected packet rate average = 0.0099125
	minimum = 0.0076 (at node 0)
	maximum = 0.0118 (at node 13)
Accepted packet rate average = 0.0099
	minimum = 0.0074 (at node 0)
	maximum = 0.0118 (at node 7)
Injected flit rate average = 0.0099125
	minimum = 0.0076 (at node 0)
	maximum = 0.0118 (at node 13)
Accepted flit rate average= 0.0099
	minimum = 0.0074 (at node 0)
	maximum = 0.0118 (at node 7)
Injected packet length average = 1
Accepted packet length average = 1
Total in-flight flits = 5 (5 measured)
latency change    = 0.00263903
throughput change = 0.0164141
Draining all recorded packets ...
Draining remaining packets ...
Time taken is 8042 cycles
Class 0:
Packet latency average = 30.0942
	minimum = 7
	maximum = 57
Network latency average = 30.0942
	minimum = 7
	maximum = 57
Slowest packet = 4081
Flit latency average = 30.0942
	minimum = 7
	maximum = 57
Slowest flit = 4081
Fragmentation average = 0
	minimum = 0
	maximum = 0
Injected packet rate average = 0.00925
	minimum = 0.005 (at node 2)
	maximum = 0.018 (at node 10)
Accepted packet rate average = 0.008625
	minimum = 0.004 (at node 8)
	maximum = 0.017 (at node 10)
Injected flit rate average = 0.00925
	minimum = 0.005 (at node 2)
	maximum = 0.018 (at node 10)
Accepted flit rate average= 0.008625
	minimum = 0.004 (at node 8)
	maximum = 0.017 (at node 10)
Injected packet length average = 1
Accepted packet length average = 1
Total in-flight flits = 10 (0 measured)
latency change    = 1
throughput change = 1
Class 0:
Packet latency average = 31.0398
	minimum = 7
	maximum = 57
Network latency average = 31.0398
	minimum = 7
	maximum = 57
Slowest packet = 4081
Flit latency average = 31.0398
	minimum = 7
	maximum = 57
Slowest flit = 4081
Fragmentation average = 0
	minimum = 0
	maximum = 0
Injected packet rate average = 0.0104375
	minimum = 0.006 (at node 15)
	maximum = 0.017 (at node 7)
Accepted packet rate average = 0.0102188
	minimum = 0.006 (at node 15)
	maximum = 0.017 (at node 13)
Injected flit rate average = 0.0104375
	minimum = 0.006 (at node 15)
	maximum = 0.017 (at node 7)
Accepted flit rate average= 0.0102188
	minimum = 0.006 (at node 15)
	maximum = 0.017 (at node 13)
Injected packet length average = 1
Accepted packet length average = 1
Total in-flight flits = 7 (0 measured)
latency change    = 0.0304626
throughput change = 0.155963
Class 0:
Packet latency average = 32.0169
	minimum = 7
	maximum = 57
Network latency average = 32.0169
	minimum = 7
	maximum = 57
Slowest packet = 4342
Flit latency average = 32.0169
	minimum = 7
	maximum = 57
Slowest flit = 4342
Fragmentation average = 0
	minimum = 0
	maximum = 0
Injected packet rate average = 0.0109375
	minimum = 0.007 (at node 0)
	maximum = 0.017 (at node 13)
Accepted packet rate average = 0.011125
	minimum = 0.007 (at node 0)
	maximum = 0.016 (at node 7)
Injected flit rate average = 0.0109375
	minimum = 0.007 (at node 0)
	maximum = 0.017 (at node 13)
Accepted flit rate average= 0.011125
	minimum = 0.007 (at node 0)
	maximum = 0.016 (at node 7)
Injected packet length average = 1
Accepted packet length average = 1
Total in-flight flits = 4 (0 measured)
latency change    = 0.0305183
throughput change = 0.0814607
Warmed up ...Time used is 3000 cycles
Class 0:
Packet latency average = 32.6122
	minimum = 7
	maximum = 67
Network latency average = 32.6122
	minimum = 7
	maximum = 67
Slowest packet = 4543
Flit latency average = 32.5298
	minimum = 7
	maximum = 67
Slowest flit = 4543
Fragmentation average = 0
	minimum = 0
	maximum = 0
Injected packet rate average = 0.009375
	minimum = 0.003 (at node 5)
	maximum = 0.015 (at node 9)
Accepted packet rate average = 0.0094375
	minimum = 0.003 (at node 5)
	maximum = 0.014 (at node 6)
Injected flit rate average = 0.009375
	minimum = 0.003 (at node 5)
	maximum = 0.015 (at node 9)
Accepted flit rate average= 0.0094375
	minimum = 0.003 (at node 5)
	maximum = 0.014 (at node 6)
Injected packet length average = 1
Accepted packet length average = 1
Total in-flight flits = 3 (3 measured)
latency change    = 0.0182567
throughput change = 0.178808
Class 0:
Packet latency average = 33.1447
	minimum = 7
	maximum = 67
Network latency average = 33.1447
	minimum = 7
	maximum = 67
Slowest packet = 4543
Flit latency average = 33.0984
	minimum = 7
	maximum = 67
Slowest flit = 4543
Fragmentation average = 0
	minimum = 0
	maximum = 0
Injected packet rate average = 0.0099375
	minimum = 0.0045 (at node 5)
	maximum = 0.014 (at node 14)
Accepted packet rate average = 0.00984375
	minimum = 0.0045 (at node 5)
	maximum = 0.0135 (at node 11)
Injected flit rate average = 0.0099375
	minimum = 0.0045 (at node 5)
	maximum = 0.014 (at node 14)
Accepted flit rate average= 0.00984375
	minimum = 0.0045 (at node 5)
	maximum = 0.0135 (at node 11)
Injected packet length average = 1
Accepted packet length average = 1
Total in-flight flits = 7 (7 measured)
latency change    = 0.0160644
throughput change = 0.0412698
Class 0:
Packet latency average = 32.5853
	minimum = 7
	maximum = 67
Network latency average = 32.5853
	minimum = 7
	maximum = 67
Slowest packet = 4543
Flit latency average = 32.5615
	minimum = 7
	maximum = 67
Slowest flit = 4543
Fragmentation average = 0
	minimum = 0
	maximum = 0
Injected packet rate average = 0.0108333
	minimum = 0.00666667 (at node 5)
	maximum = 0.014 (at node 14)
Accepted packet rate average = 0.0108333
	minimum = 0.00666667 (at node 5)
	maximum = 0.014 (at node 2)
Injected flit rate average = 0.0108333
	minimum = 0.00666667 (at node 5)
	maximum = 0.014 (at node 14)
Accepted flit rate average= 0.0108333
	minimum = 0.00666667 (at node 5)
	maximum = 0.014 (at node 2)
Injected packet length average = 1
Accepted packet length average = 1
Total in-flight flits = 4 (4 measured)
latency change    = 0.017168
throughput change = 0.0913462
Class 0:
Packet latency average = 32.344
	minimum = 7
	maximum = 68
Network latency average = 32.344
	minimum = 7
	maximum = 68
Slowest packet = 4998
Flit latency average = 32.3275
	minimum = 7
	maximum = 68
Slowest flit = 4998
Fragmentation average = 0
	minimum = 0
	maximum = 0
Injected packet rate average = 0.0107812
	minimum = 0.007 (at node 5)
	maximum = 0.01275 (at node 8)
Accepted packet rate average = 0.0107812
	minimum = 0.007 (at node 5)
	maximum = 0.013 (at node 2)
Injected flit rate average = 0.0107812
	minimum = 0.007 (at node 5)
	maximum = 0.01275 (at node 8)
Accepted flit rate average= 0.0107812
	minimum = 0.007 (at node 5)
	maximum = 0.013 (at node 2)
Injected packet length average = 1
Accepted packet length average = 1
Total in-flight flits = 4 (4 measured)
latency change    = 0.00745881
throughput change = 0.00483092
Class 0:
Packet latency average = 32.0972
	minimum = 7
	maximum = 68
Network latency average = 32.0972
	minimum = 7
	maximum = 68
Slowest packet = 4998
Flit latency average = 32.0851
	minimum = 7
	maximum = 68
Slowest flit = 4998
Fragmentation average = 0
	minimum = 0
	maximum = 0
Injected packet rate average = 0.0107
	minimum = 0.007 (at node 5)
	maximum = 0.0124 (at node 8)
Accepted packet rate average = 0.010725
	minimum = 0.007 (at node 5)
	maximum = 0.0126 (at node 2)
Injected flit rate average = 0.0107
	minimum = 0.007 (at node 5)
	maximum = 0.0124 (at node 8)
Accepted flit rate average= 0.010725
	minimum = 0.007 (at node 5)
	maximum = 0.0126 (at node 2)
Injected packet length average = 1
Accepted packet length average = 1
Total in-flight flits = 2 (2 measured)
latency change    = 0.00769019
throughput change = 0.00524476
Class 0:
Packet latency average = 32.3682
	minimum = 7
	maximum = 68
Network latency average = 32.3682
	minimum = 7
	maximum = 68
Slowest packet = 4998
Flit latency average = 32.357
	minimum = 7
	maximum = 68
Slowest flit = 4998
Fragmentation average = 0
	minimum = 0
	maximum = 0
Injected packet rate average = 0.0107292
	minimum = 0.008 (at node 5)
	maximum = 0.0123333 (at node 8)
Accepted packet rate average = 0.0107083
	minimum = 0.008 (at node 5)
	maximum = 0.0125 (at node 2)
Injected flit rate average = 0.0107292
	minimum = 0.008 (at node 5)
	maximum = 0.0123333 (at node 8)
Accepted flit rate average= 0.0107083
	minimum = 0.008 (at node 5)
	maximum = 0.0125 (at node 2)
Injected packet length average = 1
Accepted packet length average = 1
Total in-flight flits = 6 (6 measured)
latency change    = 0.00837163
throughput change = 0.00155642
Draining all recorded packets ...
Draining remaining packets ...
Time taken is 9058 cycles
Class 0:
Packet latency average = 31.8636
	minimum = 7
	maximum = 57
Network latency average = 31.8636
	minimum = 7
	maximum = 57
Slowest packet = 5516
Flit latency average = 31.8636
	minimum = 7
	maximum = 57
Slowest flit = 5516
Fragmentation average = 0
	minimum = 0
	maximum = 0
Injected packet rate average = 0.010125
	minimum = 0.005 (at node 10)
	maximum = 0.014 (at node 3)
Accepted packet rate average = 0.009625
	minimum = 0.005 (at node 10)
	maximum = 0.014 (at node 13)
Injected flit rate average = 0.010125
	minimum = 0.005 (at node 10)
	maximum = 0.014 (at node 3)
Accepted flit rate average= 0.009625
	minimum = 0.005 (at node 10)
	maximum = 0.014 (at node 13)
Injected packet length average = 1
Accepted packet length average = 1
Total in-flight flits = 8 (0 measured)
latency change    = 1
throughput change = 1
Class 0:
Packet latency average = 31.7038
	minimum = 7
	maximum = 57
Network latency average = 31.7038
	minimum = 7
	maximum = 57
Slowest packet = 5516
Flit latency average = 31.7038
	minimum = 7
	maximum = 57
Slowest flit = 5516
Fragmentation average = 0
	minimum = 0
	maximum = 0
Injected packet rate average = 0.01
	minimum = 0.006 (at node 15)
	maximum = 0.015 (at node 8)
Accepted packet rate average = 0.0098125
	minimum = 0.006 (at node 15)
	maximum = 0.0145 (at node 13)
Injected flit rate average = 0.01
	minimum = 0.006 (at node 15)
	maximum = 0.015 (at node 8)
Accepted flit rate average= 0.0098125
	minimum = 0.006 (at node 15)
	maximum = 0.0145 (at node 13)
Injected packet length average = 1
Accepted packet length average = 1
Total in-flight flits = 6 (0 measured)
latency change    = 0.00504087
throughput change = 0.0191083
Class 0:
Packet latency average = 32.6918
	minimum = 7
	maximum = 67
Network latency average = 32.6918
	minimum = 7
	maximum = 67
Slowest packet = 5856
Flit latency average = 32.6918
	minimum = 7
	maximum = 67
Slowest flit = 5856
Fragmentation average = 0
	minimum = 0
	maximum = 0
Injected packet rate average = 0.0096875
	minimum = 0.005 (at node 3)
	maximum = 0.016 (at node 14)
Accepted packet rate average = 0.0099375
	minimum = 0.005 (at node 9)
	maximum = 0.015 (at node 11)
Injected flit rate average = 0.0096875
	minimum = 0.005 (at node 3)
	maximum = 0.016 (at node 14)
Accepted flit rate average= 0.0099375
	minimum = 0.005 (at node 9)
	maximum = 0.015 (at node 11)
Injected packet length average = 1
Accepted packet length average = 1
Total in-flight flits = 2 (0 measured)
latency change    = 0.0302217
throughput change = 0.0125786
Warmed up ...Time used is 3000 cycles
Class 0:
Packet latency average = 32.1714
	minimum = 7
	maximum = 67
Network latency average = 32.1714
	minimum = 7
	maximum = 67
Slowest packet = 6020
Flit latency average = 32.3099
	minimum = 7
	maximum = 67
Slowest flit = 6020
Fragmentation average = 0
	minimum = 0
	maximum = 0
Injected packet rate average = 0.009125
	minimum = 0.004 (at node 4)
	maximum = 0.017 (at node 1)
Accepted packet rate average = 0.008875
	minimum = 0.003 (at node 2)
	maximum = 0.016 (at node 4)
Injected flit rate average = 0.009125
	minimum = 0.004 (at node 4)
	maximum = 0.017 (at node 1)
Accepted flit rate average= 0.008875
	minimum = 0.003 (at node 2)
	maximum = 0.016 (at node 4)
Injected packet length average = 1
Accepted packet length average = 1
Total in-flight flits = 6 (6 measured)
latency change    = 0.0161757
throughput change = 0.119718
Class 0:
Packet latency average = 32.8487
	minimum = 7
	maximum = 68
Network latency average = 32.8487
	minimum = 7
	maximum = 68
Slowest packet = 6224
Flit latency average = 32.9085
	minimum = 7
	maximum = 68
Slowest flit = 6224
Fragmentation average = 0
	minimum = 0
	maximum = 0
Injected packet rate average = 0.00971875
	minimum = 0.007 (at node 4)
	maximum = 0.013 (at node 1)
Accepted packet rate average = 0.0095625
	minimum = 0.0065 (at node 1)
	maximum = 0.0125 (at node 0)
Injected flit rate average = 0.00971875
	minimum = 0.007 (at node 4)
	maximum = 0.013 (at node 1)
Accepted flit rate average= 0.0095625
	minimum = 0.0065 (at node 1)
	maximum = 0.0125 (at node 0)
Injected packet length average = 1
Accepted packet length average = 1
Total in-flight flits = 7 (7 measured)
latency change    = 0.0206174
throughput change = 0.0718954
Class 0:
Packet latency average = 32.6489
	minimum = 7
	maximum = 68
Network latency average = 32.6489
	minimum = 7
	maximum = 68
Slowest packet = 6224
Flit latency average = 32.6903
	minimum = 7
	maximum = 68
Slowest flit = 6224
Fragmentation average = 0
	minimum = 0
	maximum = 0
Injected packet rate average = 0.0094375
	minimum = 0.00666667 (at node 13)
	maximum = 0.012 (at node 0)
Accepted packet rate average = 0.00941667
	minimum = 0.00666667 (at node 7)
	maximum = 0.012 (at node 0)
Injected flit rate average = 0.0094375
	minimum = 0.00666667 (at node 13)
	maximum = 0.012 (at node 0)
Accepted flit rate average= 0.00941667
	minimum = 0.00666667 (at node 7)
	maximum = 0.012 (at node 0)
Injected packet length average = 1
Accepted packet length average = 1
Total in-flight flits = 3 (3 measured)
latency change    = 0.00611951
throughput change = 0.0154867
Class 0:
Packet latency average = 32.3422
	minimum = 7
	maximum = 68
Network latency average = 32.3422
	minimum = 7
	maximum = 68
Slowest packet = 6224
Flit latency average = 32.3744
	minimum = 7
	maximum = 68
Slowest flit = 6224
Fragmentation average = 0
	minimum = 0
	maximum = 0
Injected packet rate average = 0.00945312
	minimum = 0.00725 (at node 13)
	maximum = 0.0125 (at node 1)
Accepted packet rate average = 0.00939062
	minimum = 0.00725 (at node 7)
	maximum = 0.0125 (at node 4)
Injected flit rate average = 0.00945312
	minimum = 0.00725 (at node 13)
	maximum = 0.0125 (at node 1)
Accepted flit rate average= 0.00939062
	minimum = 0.00725 (at node 7)
	maximum = 0.0125 (at node 4)
Injected packet length average = 1
Accepted packet length average = 1
Total in-flight flits = 6 (6 measured)
latency change    = 0.00948147
throughput change = 0.00277316
Class 0:
Packet latency average = 32.4189
	minimum = 7
	maximum = 68
Network latency average = 32.4189
	minimum = 7
	maximum = 68
Slowest packet = 6224
Flit latency average = 32.4437
	minimum = 7
	maximum = 68
Slowest flit = 6224
Fragmentation average = 0
	minimum = 0
	maximum = 0
Injected packet rate average = 0.0097125
	minimum = 0.0074 (at node 13)
	maximum = 0.0126 (at node 0)
Accepted packet rate average = 0.0096625
	minimum = 0.0074 (at node 7)
	maximum = 0.0124 (at node 0)
Injected flit rate average = 0.0097125
	minimum = 0.0074 (at node 13)
	maximum = 0.0126 (at node 0)
Accepted flit rate average= 0.0096625
	minimum = 0.0074 (at node 7)
	maximum = 0.0124 (at node 0)
Injected packet length average = 1
Accepted packet length average = 1
Total in-flight flits = 6 (6 measured)
latency change    = 0.00236588
throughput change = 0.0281371
Draining all recorded packets ...
Draining remaining packets ...
Time taken is 8061 cycles
Class 0:
Packet latency average = 30.6346
	minimum = 7
	maximum = 57
Network latency average = 30.6346
	minimum = 7
	maximum = 57
Slowest packet = 6760
Flit latency average = 30.6346
	minimum = 7
	maximum = 57
Slowest flit = 6760
Fragmentation average = 0
	minimum = 0
	maximum = 0
Injected packet rate average = 0.0099375
	minimum = 0.004 (at node 0)
	maximum = 0.016 (at node 8)
Accepted packet rate average = 0.00975
	minimum = 0.004 (at node 0)
	maximum = 0.016 (at node 2)
Injected flit rate average = 0.0099375
	minimum = 0.004 (at node 0)
	maximum = 0.016 (at node 8)
Accepted flit rate average= 0.00975
	minimum = 0.004 (at node 0)
	maximum = 0.016 (at node 2)
Injected packet length average = 1
Accepted packet length average = 1
Total in-flight flits = 3 (0 measured)
latency change    = 1
throughput change = 1
Class 0:
Packet latency average = 31.3465
	minimum = 7
	maximum = 67
Network latency average = 31.3465
	minimum = 7
	maximum = 67
Slowest packet = 6957
Flit latency average = 31.3465
	minimum = 7
	maximum = 67
Slowest flit = 6957
Fragmentation average = 0
	minimum = 0
	maximum = 0
Injected packet rate average = 0.0104063
	minimum = 0.0065 (at node 0)
	maximum = 0.0155 (at node 8)
Accepted packet rate average = 0.0102813
	minimum = 0.0065 (at node 0)
	maximum = 0.0155 (at node 2)
Injected flit rate average = 0.0104063
	minimum = 0.0065 (at node 0)
	maximum = 0.0155 (at node 8)
Accepted flit rate average= 0.0102813
	minimum = 0.0065 (at node 0)
	maximum = 0.0155 (at node 2)
Injected packet length average = 1
Accepted packet length average = 1
Total in-flight flits = 4 (0 measured)
latency change    = 0.0227103
throughput change = 0.0516717
Class 0:
Packet latency average = 31.5461
	minimum = 7
	maximum = 67
Network latency average = 31.5461
	minimum = 7
	maximum = 67
Slowest packet = 7208
Flit latency average = 31.5461
	minimum = 7
	maximum = 67
Slowest flit = 7208
Fragmentation average = 0
	minimum = 0
	maximum = 0
Injected packet rate average = 0.009
	minimum = 0.004 (at node 5)
	maximum = 0.016 (at node 4)
Accepted packet rate average = 0.0088125
	minimum = 0.004 (at node 2)
	maximum = 0.015 (at node 1)
Injected flit rate average = 0.009
	minimum = 0.004 (at node 5)
	maximum = 0.016 (at node 4)
Accepted flit rate average= 0.0088125
	minimum = 0.004 (at node 2)
	maximum = 0.015 (at node 1)
Injected packet length average = 1
Accepted packet length average = 1
Total in-flight flits = 7 (0 measured)
latency change    = 0.00632708
throughput change = 0.166667
Warmed up ...Time used is 3000 cycles
Class 0:
Packet latency average = 32.7808
	minimum = 7
	maximum = 67
Network latency average = 32.7808
	minimum = 7
	maximum = 67
Slowest packet = 7272
Flit latency average = 32.5163
	minimum = 7
	maximum = 67
Slowest flit = 7272
Fragmentation average = 0
	minimum = 0
	maximum = 0
Injected packet rate average = 0.009625
	minimum = 0.004 (at node 7)
	maximum = 0.017 (at node 13)
Accepted packet rate average = 0.0095625
	minimum = 0.005 (at node 13)
	maximum = 0.014 (at node 7)
Injected flit rate average = 0.009625
	minimum = 0.004 (at node 7)
	maximum = 0.017 (at node 13)
Accepted flit rate average= 0.0095625
	minimum = 0.005 (at node 13)
	maximum = 0.014 (at node 7)
Injected packet length average = 1
Accepted packet length average = 1
Total in-flight flits = 8 (8 measured)
latency change    = 0.037666
throughput change = 0.0784314
Class 0:
Packet latency average = 32.505
	minimum = 7
	maximum = 67
Network latency average = 32.505
	minimum = 7
	maximum = 67
Slowest packet = 7272
Flit latency average = 32.3791
	minimum = 7
	maximum = 67
Slowest flit = 7272
Fragmentation average = 0
	minimum = 0
	maximum = 0
Injected packet rate average = 0.0095
	minimum = 0.0065 (at node 11)
	maximum = 0.0125 (at node 13)
Accepted packet rate average = 0.0095625
	minimum = 0.0065 (at node 14)
	maximum = 0.0125 (at node 3)
Injected flit rate average = 0.0095
	minimum = 0.0065 (at node 11)
	maximum = 0.0125 (at node 13)
Accepted flit rate average= 0.0095625
	minimum = 0.0065 (at node 14)
	maximum = 0.0125 (at node 3)
Injected packet length average = 1
Accepted packet length average = 1
Total in-flight flits = 5 (5 measured)
latency change    = 0.008485
throughput change = 0
Class 0:
Packet latency average = 32.7967
	minimum = 7
	maximum = 67
Network latency average = 32.7967
	minimum = 7
	maximum = 67
Slowest packet = 7272
Flit latency average = 32.7137
	minimum = 7
	maximum = 67
Slowest flit = 7272
Fragmentation average = 0
	minimum = 0
	maximum = 0
Injected packet rate average = 0.010125
	minimum = 0.00733333 (at node 11)
	maximum = 0.0133333 (at node 12)
Accepted packet rate average = 0.0101875
	minimum = 0.007 (at node 14)
	maximum = 0.0136667 (at node 3)
Injected flit rate average = 0.010125
	minimum = 0.00733333 (at node 11)
	maximum = 0.0133333 (at node 12)
Accepted flit rate average= 0.0101875
	minimum = 0.007 (at node 14)
	maximum = 0.0136667 (at node 3)
Injected packet length average = 1
Accepted packet length average = 1
Total in-flight flits = 4 (4 measured)
latency change    = 0.00889309
throughput change = 0.0613497
Class 0:
Packet latency average = 32.3862
	minimum = 7
	maximum = 67
Network latency average = 32.3862
	minimum = 7
	maximum = 67
Slowest packet = 7272
Flit latency average = 32.3265
	minimum = 7
	maximum = 67
Slowest flit = 7272
Fragmentation average = 0
	minimum = 0
	maximum = 0
Injected packet rate average = 0.00982813
	minimum = 0.00725 (at node 8)
	maximum = 0.0125 (at node 12)
Accepted packet rate average = 0.00985938
	minimum = 0.00725 (at node 2)
	maximum = 0.01275 (at node 3)
Injected flit rate average = 0.00982813
	minimum = 0.00725 (at node 8)
	maximum = 0.0125 (at node 12)
Accepted flit rate average= 0.00985938
	minimum = 0.00725 (at node 2)
	maximum = 0.01275 (at node 3)
Injected packet length average = 1
Accepted packet length average = 1
Total in-flight flits = 5 (5 measured)
latency change    = 0.012674
throughput change = 0.0332805
Class 0:
Packet latency average = 32.1579
	minimum = 7
	maximum = 67
Network latency average = 32.1579
	minimum = 7
	maximum = 67
Slowest packet = 7272
Flit latency average = 32.113
	minimum = 7
	maximum = 67
Slowest flit = 7272
Fragmentation average = 0
	minimum = 0
	maximum = 0
Injected packet rate average = 0.0100625
	minimum = 0.0074 (at node 8)
	maximum = 0.0124 (at node 4)
Accepted packet rate average = 0.0100625
	minimum = 0.0072 (at node 2)
	maximum = 0.0124 (at node 1)
Injected flit rate average = 0.0100625
	minimum = 0.0074 (at node 8)
	maximum = 0.0124 (at node 4)
Accepted flit rate average= 0.0100625
	minimum = 0.0072 (at node 2)
	maximum = 0.0124 (at node 1)
Injected packet length average = 1
Accepted packet length average = 1
Total in-flight flits = 7 (7 measured)
latency change    = 0.00710007
throughput change = 0.0201863
Class 0:
Packet latency average = 32.0083
	minimum = 7
	maximum = 67
Network latency average = 32.0083
	minimum = 7
	maximum = 67
Slowest packet = 7272
Flit latency average = 31.9722
	minimum = 7
	maximum = 67
Slowest flit = 7272
Fragmentation average = 0
	minimum = 0
	maximum = 0
Injected packet rate average = 0.0100833
	minimum = 0.0075 (at node 8)
	maximum = 0.013 (at node 4)
Accepted packet rate average = 0.0101146
	minimum = 0.0075 (at node 2)
	maximum = 0.013 (at node 1)
Injected flit rate average = 0.0100833
	minimum = 0.0075 (at node 8)
	maximum = 0.013 (at node 4)
Accepted flit rate average= 0.0101146
	minimum = 0.0075 (at node 2)
	maximum = 0.013 (at node 1)
Injected packet length average = 1
Accepted packet length average = 1
Total in-flight flits = 4 (4 measured)
latency change    = 0.00467366
throughput change = 0.00514933
Draining all recorded packets ...
Draining remaining packets ...
Time taken is 9023 cycles
Class 0:
Packet latency average = 30.2993
	minimum = 7
	maximum = 67
Network latency average = 30.2993
	minimum = 7
	maximum = 67
Slowest packet = 8312
Flit latency average = 30.2993
	minimum = 7
	maximum = 67
Slowest flit = 8312
Fragmentation average = 0
	minimum = 0
	maximum = 0
Injected packet rate average = 0.0095
	minimum = 0.003 (at node 11)
	maximum = 0.015 (at node 4)
Accepted packet rate average = 0.0091875
	minimum = 0.003 (at node 14)
	maximum = 0.014 (at node 1)
Injected flit rate average = 0.0095
	minimum = 0.003 (at node 11)
	maximum = 0.015 (at node 4)
Accepted flit rate average= 0.0091875
	minimum = 0.003 (at node 14)
	maximum = 0.014 (at node 1)
Injected packet length average = 1
Accepted packet length average = 1
Total in-flight flits = 5 (0 measured)
latency change    = 1
throughput change = 1
Class 0:
Packet latency average = 31.1457
	minimum = 7
	maximum = 67
Network latency average = 31.1457
	minimum = 7
	maximum = 67
Slowest packet = 8312
Flit latency average = 31.1457
	minimum = 7
	maximum = 67
Slowest flit = 8312
Fragmentation average = 0
	minimum = 0
	maximum = 0
Injected packet rate average = 0.00965625
	minimum = 0.005 (at node 11)
	maximum = 0.0135 (at node 8)
Accepted packet rate average = 0.0094375
	minimum = 0.0045 (at node 14)
	maximum = 0.013 (at node 2)
Injected flit rate average = 0.00965625
	minimum = 0.005 (at node 11)
	maximum = 0.0135 (at node 8)
Accepted flit rate average= 0.0094375
	minimum = 0.0045 (at node 14)
	maximum = 0.013 (at node 2)
Injected packet length average = 1
Accepted packet length average = 1
Total in-flight flits = 7 (0 measured)
latency change    = 0.0271747
throughput change = 0.0264901
Class 0:
Packet latency average = 32.3725
	minimum = 7
	maximum = 57
Network latency average = 32.3725
	minimum = 7
	maximum = 57
Slowest packet = 8545
Flit latency average = 32.3725
	minimum = 7
	maximum = 57
Slowest flit = 8545
Fragmentation average = 0
	minimum = 0
	maximum = 0
Injected packet rate average = 0.00925
	minimum = 0.003 (at node 10)
	maximum = 0.02 (at node 12)
Accepted packet rate average = 0.0095625
	minimum = 0.003 (at node 10)
	maximum = 0.021 (at node 3)
Injected flit rate average = 0.00925
	minimum = 0.003 (at node 10)
	maximum = 0.02 (at node 12)
Accepted flit rate average= 0.0095625
	minimum = 0.003 (at node 10)
	maximum = 0.021 (at node 3)
Injected packet length average = 1
Accepted packet length average = 1
Total in-flight flits = 2 (0 measured)
latency change    = 0.037898
throughput change = 0.0130719
Warmed up ...Time used is 3000 cycles
Class 0:
Packet latency average = 30.7092
	minimum = 7
	maximum = 57
Network latency average = 30.7092
	minimum = 7
	maximum = 57
Slowest packet = 8683
Flit latency average = 30.6643
	minimum = 7
	maximum = 57
Slowest flit = 8683
Fragmentation average = 0
	minimum = 0
	maximum = 0
Injected packet rate average = 0.0090625
	minimum = 0.005 (at node 1)
	maximum = 0.013 (at node 0)
Accepted packet rate average = 0.0089375
	minimum = 0.005 (at node 1)
	maximum = 0.013 (at node 0)
Injected flit rate average = 0.0090625
	minimum = 0.005 (at node 1)
	maximum = 0.013 (at node 0)
Accepted flit rate average= 0.0089375
	minimum = 0.005 (at node 1)
	maximum = 0.013 (at node 0)
Injected packet length average = 1
Accepted packet length average = 1
Total in-flight flits = 4 (4 measured)
latency change    = 0.0541638
throughput change = 0.0699301
Class 0:
Packet latency average = 31.9121
	minimum = 7
	maximum = 67
Network latency average = 31.9121
	minimum = 7
	maximum = 67
Slowest packet = 8820
Flit latency average = 31.8835
	minimum = 7
	maximum = 67
Slowest flit = 8820
Fragmentation average = 0
	minimum = 0
	maximum = 0
Injected packet rate average = 0.00978125
	minimum = 0.007 (at node 15)
	maximum = 0.014 (at node 13)
Accepted packet rate average = 0.00965625
	minimum = 0.007 (at node 15)
	maximum = 0.0135 (at node 7)
Injected flit rate average = 0.00978125
	minimum = 0.007 (at node 15)
	maximum = 0.014 (at node 13)
Accepted flit rate average= 0.00965625
	minimum = 0.007 (at node 15)
	maximum = 0.0135 (at node 7)
Injected packet length average = 1
Accepted packet length average = 1
Total in-flight flits = 6 (6 measured)
latency change    = 0.0376921
throughput change = 0.0744337
Class 0:
Packet latency average = 31.9163
	minimum = 7
	maximum = 67
Network latency average = 31.9163
	minimum = 7
	maximum = 67
Slowest packet = 8820
Flit latency average = 31.8974
	minimum = 7
	maximum = 67
Slowest flit = 8820
Fragmentation average = 0
	minimum = 0
	maximum = 0
Injected packet rate average = 0.0098125
	minimum = 0.00666667 (at node 1)
	maximum = 0.015 (at node 13)
Accepted packet rate average = 0.00975
	minimum = 0.00666667 (at node 4)
	maximum = 0.0146667 (at node 7)
Injected flit rate average = 0.0098125
	minimum = 0.00666667 (at node 1)
	maximum = 0.015 (at node 13)
Accepted flit rate average= 0.00975
	minimum = 0.00666667 (at node 4)
	maximum = 0.0146667 (at node 7)
Injected packet length average = 1
Accepted packet length average = 1
Total in-flight flits = 5 (5 measured)
latency change    = 0.000133377
throughput change = 0.00961538
Class 0:
Packet latency average = 31.897
	minimum = 7
	maximum = 68
Network latency average = 31.897
	minimum = 7
	maximum = 68
Slowest packet = 9191
Flit latency average = 31.8834
	minimum = 7
	maximum = 68
Slowest flit = 9191
Fragmentation average = 0
	minimum = 0
	maximum = 0
Injected packet rate average = 0.0100781
	minimum = 0.0075 (at node 1)
	maximum = 0.0135 (at node 13)
Accepted packet rate average = 0.0100469
	minimum = 0.0075 (at node 4)
	maximum = 0.01325 (at node 7)
Injected flit rate average = 0.0100781
	minimum = 0.0075 (at node 1)
	maximum = 0.0135 (at node 13)
Accepted flit rate average= 0.0100469
	minimum = 0.0075 (at node 4)
	maximum = 0.01325 (at node 7)
Injected packet length average = 1
Accepted packet length average = 1
Total in-flight flits = 4 (4 measured)
latency change    = 0.00060423
throughput change = 0.029549
Class 0:
Packet latency average = 31.6959
	minimum = 7
	maximum = 68
Network latency average = 31.6959
	minimum = 7
	maximum = 68
Slowest packet = 9191
Flit latency average = 31.6853
	minimum = 7
	maximum = 68
Slowest flit = 9191
Fragmentation average = 0
	minimum = 0
	maximum = 0
Injected packet rate average = 0.009875
	minimum = 0.007 (at node 1)
	maximum = 0.013 (at node 13)
Accepted packet rate average = 0.00985
	minimum = 0.007 (at node 4)
	maximum = 0.0128 (at node 7)
Injected flit rate average = 0.009875
	minimum = 0.007 (at node 1)
	maximum = 0.013 (at node 13)
Accepted flit rate average= 0.00985
	minimum = 0.007 (at node 4)
	maximum = 0.0128 (at node 7)
Injected packet length average = 1
Accepted packet length average = 1
Total in-flight flits = 4 (4 measured)
latency change    = 0.00634489
throughput change = 0.0199873
Draining all recorded packets ...
Draining remaining packets ...
Time taken is 8106 cycles
Class 0:
Packet latency average = 32.4207
	minimum = 7
	maximum = 57
Network latency average = 32.4207
	minimum = 7
	maximum = 57
Slowest packet = 9540
Flit latency average = 32.4207
	minimum = 7
	maximum = 57
Slowest flit = 9540
Fragmentation average = 0
	minimum = 0
	maximum = 0
Injected packet rate average = 0.009375
	minimum = 0.003 (at node 10)
	maximum = 0.014 (at node 3)
Accepted packet rate average = 0.0090625
	minimum = 0.003 (at node 10)
	maximum = 0.013 (at node 6)
Injected flit rate average = 0.009375
	minimum = 0.003 (at node 10)
	maximum = 0.014 (at node 3)
Accepted flit rate average= 0.0090625
	minimum = 0.003 (at node 10)
	maximum = 0.013 (at node 6)
Injected packet length average = 1
Accepted packet length average = 1
Total in-flight flits = 5 (0 measured)
latency change    = 1
throughput change = 1
Class 0:
Packet latency average = 30.8703
	minimum = 7
	maximum = 57
Network latency average = 30.8703
	minimum = 7
	maximum = 57
Slowest packet = 9540
Flit latency average = 30.8703
	minimum = 7
	maximum = 57
Slowest flit = 9540
Fragmentation average = 0
	minimum = 0
	maximum = 0
Injected packet rate average = 0.01
	minimum = 0.007 (at node 6)
	maximum = 0.014 (at node 9)
Accepted packet rate average = 0.009875
	minimum = 0.007 (at node 7)
	maximum = 0.014 (at node 6)
Injected flit rate average = 0.01
	minimum = 0.007 (at node 6)
	maximum = 0.014 (at node 9)
Accepted flit rate average= 0.009875
	minimum = 0.007 (at node 7)
	maximum = 0.014 (at node 6)
Injected packet length average = 1
Accepted packet length average = 1
Total in-flight flits = 4 (0 measured)
latency change    = 0.0502243
throughput change = 0.0822785
Class 0:
Packet latency average = 32.2449
	minimum = 7
	maximum = 67
Network latency average = 32.2449
	minimum = 7
	maximum = 67
Slowest packet = 9770
Flit latency average = 32.2449
	minimum = 7
	maximum = 67
Slowest flit = 9770
Fragmentation average = 0
	minimum = 0
	maximum = 0
Injected packet rate average = 0.0091875
	minimum = 0.006 (at node 6)
	maximum = 0.013 (at node 0)
Accepted packet rate average = 0.0091875
	minimum = 0.006 (at node 6)
	maximum = 0.014 (at node 0)
Injected flit rate average = 0.0091875
	minimum = 0.006 (at node 6)
	maximum = 0.013 (at node 0)
Accepted flit rate average= 0.0091875
	minimum = 0.006 (at node 6)
	maximum = 0.014 (at node 0)
Injected packet length average = 1
Accepted packet length average = 1
Total in-flight flits = 4 (0 measured)
latency change    = 0.0426314
throughput change = 0.0748299
Warmed up ...Time used is 3000 cycles
Class 0:
Packet latency average = 31.0625
	minimum = 7
	maximum = 67
Network latency average = 31.0625
	minimum = 7
	maximum = 67
Slowest packet = 9938
Flit latency average = 31.2635
	minimum = 7
	maximum = 67
Slowest flit = 9938
Fragmentation average = 0
	minimum = 0
	maximum = 0
Injected packet rate average = 0.00925
	minimum = 0.006 (at node 1)
	maximum = 0.014 (at node 2)
Accepted packet rate average = 0.00925
	minimum = 0.005 (at node 0)
	maximum = 0.014 (at node 1)
Injected flit rate average = 0.00925
	minimum = 0.006 (at node 1)
	maximum = 0.014 (at node 2)
Accepted flit rate average= 0.00925
	minimum = 0.005 (at node 0)
	maximum = 0.014 (at node 1)
Injected packet length average = 1
Accepted packet length average = 1
Total in-flight flits = 4 (4 measured)
latency change    = 0.0380651
throughput change = 0.00675676
Class 0:
Packet latency average = 30.8737
	minimum = 7
	maximum = 67
Network latency average = 30.8737
	minimum = 7
	maximum = 67
Slowest packet = 9938
Flit latency average = 30.9764
	minimum = 7
	maximum = 67
Slowest flit = 9938
Fragmentation average = 0
	minimum = 0
	maximum = 0
Injected packet rate average = 0.00953125
	minimum = 0.006 (at node 0)
	maximum = 0.0145 (at node 4)
Accepted packet rate average = 0.00928125
	minimum = 0.005 (at node 0)
	maximum = 0.0145 (at node 1)
Injected flit rate average = 0.00953125
	minimum = 0.006 (at node 0)
	maximum = 0.0145 (at node 4)
Accepted flit rate average= 0.00928125
	minimum = 0.005 (at node 0)
	maximum = 0.0145 (at node 1)
Injected packet length average = 1
Accepted packet length average = 1
Total in-flight flits = 12 (12 measured)
latency change    = 0.00611458
throughput change = 0.003367
Class 0:
Packet latency average = 31.2854
	minimum = 7
	maximum = 67
Network latency average = 31.2854
	minimum = 7
	maximum = 67
Slowest packet = 9938
Flit latency average = 31.3487
	minimum = 7
	maximum = 67
Slowest flit = 9938
Fragmentation average = 0
	minimum = 0
	maximum = 0
Injected packet rate average = 0.00952083
	minimum = 0.006 (at node 1)
	maximum = 0.014 (at node 4)
Accepted packet rate average = 0.0095
	minimum = 0.00566667 (at node 15)
	maximum = 0.0143333 (at node 1)
Injected flit rate average = 0.00952083
	minimum = 0.006 (at node 1)
	maximum = 0.014 (at node 4)
Accepted flit rate average= 0.0095
	minimum = 0.00566667 (at node 15)
	maximum = 0.0143333 (at node 1)
Injected packet length average = 1
Accepted packet length average = 1
Total in-flight flits = 5 (5 measured)
latency change    = 0.0131588
throughput change = 0.0230263
Draining all recorded packets ...
Draining remaining packets ...
Time taken is 6063 cycles
Class 0:
Packet latency average = 31.5706
	minimum = 7
	maximum = 67
Network latency average = 31.5706
	minimum = 7
	maximum = 67
Slowest packet = 10490
Flit latency average = 31.5706
	minimum = 7
	maximum = 67
Slowest flit = 10490
Fragmentation average = 0
	minimum = 0
	maximum = 0
Injected packet rate average = 0.0111875
	minimum = 0.005 (at node 2)
	maximum = 0.017 (at node 9)
Accepted packet rate average = 0.010625
	minimum = 0.005 (at node 8)
	maximum = 0.017 (at node 3)
Injected flit rate average = 0.0111875
	minimum = 0.005 (at node 2)
	maximum = 0.017 (at node 9)
Accepted flit rate average= 0.010625
	minimum = 0.005 (at node 8)
	maximum = 0.017 (at node 3)
Injected packet length average = 1
Accepted packet length average = 1
Total in-flight flits = 9 (0 measured)
latency change    = 1
throughput change = 1
Class 0:
Packet latency average = 31.6246
	minimum = 7
	maximum = 67
Network latency average = 31.6246
	minimum = 7
	maximum = 67
Slowest packet = 10490
Flit latency average = 31.6246
	minimum = 7
	maximum = 67
Slowest flit = 10490
Fragmentation average = 0
	minimum = 0
	maximum = 0
Injected packet rate average = 0.0105625
	minimum = 0.0035 (at node 2)
	maximum = 0.014 (at node 12)
Accepted packet rate average = 0.0104063
	minimum = 0.0035 (at node 8)
	maximum = 0.0135 (at node 3)
Injected flit rate average = 0.0105625
	minimum = 0.0035 (at node 2)
	maximum = 0.014 (at node 12)
Accepted flit rate average= 0.0104063
	minimum = 0.0035 (at node 8)
	maximum = 0.0135 (at node 3)
Injected packet length average = 1
Accepted packet length average = 1
Total in-flight flits = 5 (0 measured)
latency change    = 0.00170868
throughput change = 0.021021
Class 0:
Packet latency average = 31.8678
	minimum = 7
	maximum = 57
Network latency average = 31.8678
	minimum = 7
	maximum = 57
Slowest packet = 10745
Flit latency average = 31.8678
	minimum = 7
	maximum = 57
Slowest flit = 10745
Fragmentation average = 0
	minimum = 0
	maximum = 0
Injected packet rate average = 0.0109375
	minimum = 0.003 (at node 13)
	maximum = 0.02 (at node 8)
Accepted packet rate average = 0.010875
	minimum = 0.004 (at node 7)
	maximum = 0.019 (at node 2)
Injected flit rate average = 0.0109375
	minimum = 0.003 (at node 13)
	maximum = 0.02 (at node 8)
Accepted flit rate average= 0.010875
	minimum = 0.004 (at node 7)
	maximum = 0.019 (at node 2)
Injected packet length average = 1
Accepted packet length average = 1
Total in-flight flits = 6 (0 measured)
latency change    = 0.00763126
throughput change = 0.0431034
Warmed up ...Time used is 3000 cycles
Class 0:
Packet latency average = 33.5723
	minimum = 7
	maximum = 67
Network latency average = 33.5723
	minimum = 7
	maximum = 67
Slowest packet = 10910
Flit latency average = 33.703
	minimum = 7
	maximum = 67
Slowest flit = 10910
Fragmentation average = 0
	minimum = 0
	maximum = 0
Injected packet rate average = 0.0100625
	minimum = 0.006 (at node 0)
	maximum = 0.017 (at node 11)
Accepted packet rate average = 0.0103125
	minimum = 0.006 (at node 0)
	maximum = 0.017 (at node 14)
Injected flit rate average = 0.0100625
	minimum = 0.006 (at node 0)
	maximum = 0.017 (at node 11)
Accepted flit rate average= 0.0103125
	minimum = 0.006 (at node 0)
	maximum = 0.017 (at node 14)
Injected packet length average = 1
Accepted packet length average = 1
Total in-flight flits = 2 (2 measured)
latency change    = 0.0507713
throughput change = 0.0545455
Class 0:
Packet latency average = 33.2035
	minimum = 7
	maximum = 70
Network latency average = 33.2035
	minimum = 7
	maximum = 70
Slowest packet = 11066
Flit latency average = 33.2725
	minimum = 7
	maximum = 70
Slowest flit = 11066
Fragmentation average = 0
	minimum = 0
	maximum = 0
Injected packet rate average = 0.0108437
	minimum = 0.0065 (at node 9)
	maximum = 0.016 (at node 4)
Accepted packet rate average = 0.0107812
	minimum = 0.007 (at node 6)
	maximum = 0.0165 (at node 1)
Injected flit rate average = 0.0108437
	minimum = 0.0065 (at node 9)
	maximum = 0.016 (at node 4)
Accepted flit rate average= 0.0107812
	minimum = 0.007 (at node 6)
	maximum = 0.0165 (at node 1)
Injected packet length average = 1
Accepted packet length average = 1
Total in-flight flits = 8 (8 measured)
latency change    = 0.0111069
throughput change = 0.0434783
Class 0:
Packet latency average = 32.5758
	minimum = 7
	maximum = 70
Network latency average = 32.5758
	minimum = 7
	maximum = 70
Slowest packet = 11066
Flit latency average = 32.6307
	minimum = 7
	maximum = 70
Slowest flit = 11066
Fragmentation average = 0
	minimum = 0
	maximum = 0
Injected packet rate average = 0.0104375
	minimum = 0.00633333 (at node 5)
	maximum = 0.0146667 (at node 4)
Accepted packet rate average = 0.0104375
	minimum = 0.00666667 (at node 5)
	maximum = 0.0146667 (at node 1)
Injected flit rate average = 0.0104375
	minimum = 0.00633333 (at node 5)
	maximum = 0.0146667 (at node 4)
Accepted flit rate average= 0.0104375
	minimum = 0.00666667 (at node 5)
	maximum = 0.0146667 (at node 1)
Injected packet length average = 1
Accepted packet length average = 1
Total in-flight flits = 6 (6 measured)
latency change    = 0.0192715
throughput change = 0.0329341
Class 0:
Packet latency average = 32.6095
	minimum = 7
	maximum = 70
Network latency average = 32.6095
	minimum = 7
	maximum = 70
Slowest packet = 11066
Flit latency average = 32.6525
	minimum = 7
	maximum = 70
Slowest flit = 11066
Fragmentation average = 0
	minimum = 0
	maximum = 0
Injected packet rate average = 0.00992188
	minimum = 0.00625 (at node 5)
	maximum = 0.01275 (at node 3)
Accepted packet rate average = 0.0099375
	minimum = 0.00625 (at node 5)
	maximum = 0.013 (at node 12)
Injected flit rate average = 0.00992188
	minimum = 0.00625 (at node 5)
	maximum = 0.01275 (at node 3)
Accepted flit rate average= 0.0099375
	minimum = 0.00625 (at node 5)
	maximum = 0.013 (at node 12)
Injected packet length average = 1
Accepted packet length average = 1
Total in-flight flits = 5 (5 measured)
latency change    = 0.00103547
throughput change = 0.0503145
Class 0:
Packet latency average = 32.4391
	minimum = 7
	maximum = 70
Network latency average = 32.4391
	minimum = 7
	maximum = 70
Slowest packet = 11066
Flit latency average = 32.4745
	minimum = 7
	maximum = 70
Slowest flit = 11066
Fragmentation average = 0
	minimum = 0
	maximum = 0
Injected packet rate average = 0.0100125
	minimum = 0.0076 (at node 5)
	maximum = 0.0122 (at node 3)
Accepted packet rate average = 0.0100375
	minimum = 0.0078 (at node 5)
	maximum = 0.0124 (at node 12)
Injected flit rate average = 0.0100125
	minimum = 0.0076 (at node 5)
	maximum = 0.0122 (at node 3)
Accepted flit rate average= 0.0100375
	minimum = 0.0078 (at node 5)
	maximum = 0.0124 (at node 12)
Injected packet length average = 1
Accepted packet length average = 1
Total in-flight flits = 4 (4 measured)
latency change    = 0.0052522
throughput change = 0.00996264
Class 0:
Packet latency average = 32.366
	minimum = 7
	maximum = 70
Network latency average = 32.366
	minimum = 7
	maximum = 70
Slowest packet = 11066
Flit latency average = 32.3959
	minimum = 7
	maximum = 70
Slowest flit = 11066
Fragmentation average = 0
	minimum = 0
	maximum = 0
Injected packet rate average = 0.0100938
	minimum = 0.00733333 (at node 5)
	maximum = 0.012 (at node 3)
Accepted packet rate average = 0.0100521
	minimum = 0.0075 (at node 5)
	maximum = 0.012 (at node 12)
Injected flit rate average = 0.0100938
	minimum = 0.00733333 (at node 5)
	maximum = 0.012 (at node 3)
Accepted flit rate average= 0.0100521
	minimum = 0.0075 (at node 5)
	maximum = 0.012 (at node 12)
Injected packet length average = 1
Accepted packet length average = 1
Total in-flight flits = 10 (10 measured)
latency change    = 0.0022598
throughput change = 0.00145078
Class 0:
Packet latency average = 32.4495
	minimum = 7
	maximum = 70
Network latency average = 32.4495
	minimum = 7
	maximum = 70
Slowest packet = 11066
Flit latency average = 32.4744
	minimum = 7
	maximum = 70
Slowest flit = 11066
Fragmentation average = 0
	minimum = 0
	maximum = 0
Injected packet rate average = 0.0100893
	minimum = 0.00814286 (at node 5)
	maximum = 0.012 (at node 4)
Accepted packet rate average = 0.010125
	minimum = 0.00828571 (at node 5)
	maximum = 0.0121429 (at node 1)
Injected flit rate average = 0.0100893
	minimum = 0.00814286 (at node 5)
	maximum = 0.012 (at node 4)
Accepted flit rate average= 0.010125
	minimum = 0.00828571 (at node 5)
	maximum = 0.0121429 (at node 1)
Injected packet length average = 1
Accepted packet length average = 1
Total in-flight flits = 2 (2 measured)
latency change    = 0.00257206
throughput change = 0.00720165
Draining all recorded packets ...
Draining remaining packets ...
Time taken is 10035 cycles
Class 0:
Packet latency average = 31.9193
	minimum = 7
	maximum = 67
Network latency average = 31.9193
	minimum = 7
	maximum = 67
Slowest packet = 12151
Flit latency average = 31.9193
	minimum = 7
	maximum = 67
Slowest flit = 12151
Fragmentation average = 0
	minimum = 0
	maximum = 0
Injected packet rate average = 0.010375
	minimum = 0.005 (at node 6)
	maximum = 0.017 (at node 1)
Accepted packet rate average = 0.0100625
	minimum = 0.004 (at node 9)
	maximum = 0.017 (at node 4)
Injected flit rate average = 0.010375
	minimum = 0.005 (at node 6)
	maximum = 0.017 (at node 1)
Accepted flit rate average= 0.0100625
	minimum = 0.004 (at node 9)
	maximum = 0.017 (at node 4)
Injected packet length average = 1
Accepted packet length average = 1
Total in-flight flits = 5 (0 measured)
latency change    = 1
throughput change = 1
Class 0:
Packet latency average = 32.0594
	minimum = 7
	maximum = 67
Network latency average = 32.0594
	minimum = 7
	maximum = 67
Slowest packet = 12151
Flit latency average = 32.0594
	minimum = 7
	maximum = 67
Slowest flit = 12151
Fragmentation average = 0
	minimum = 0
	maximum = 0
Injected packet rate average = 0.0102188
	minimum = 0.007 (at node 6)
	maximum = 0.0145 (at node 7)
Accepted packet rate average = 0.01
	minimum = 0.007 (at node 9)
	maximum = 0.014 (at node 13)
Injected flit rate average = 0.0102188
	minimum = 0.007 (at node 6)
	maximum = 0.0145 (at node 7)
Accepted flit rate average= 0.01
	minimum = 0.007 (at node 9)
	maximum = 0.014 (at node 13)
Injected packet length average = 1
Accepted packet length average = 1
Total in-flight flits = 7 (0 measured)
latency change    = 0.00437065
throughput change = 0.00625
Class 0:
Packet latency average = 33.6415
	minimum = 7
	maximum = 67
Network latency average = 33.6415
	minimum = 7
	maximum = 67
Slowest packet = 12386
Flit latency average = 33.6415
	minimum = 7
	maximum = 67
Slowest flit = 12386
Fragmentation average = 0
	minimum = 0
	maximum = 0
Injected packet rate average = 0.00975
	minimum = 0.004 (at node 7)
	maximum = 0.015 (at node 0)
Accepted packet rate average = 0.0099375
	minimum = 0.004 (at node 9)
	maximum = 0.016 (at node 0)
Injected flit rate average = 0.00975
	minimum = 0.004 (at node 7)
	maximum = 0.015 (at node 0)
Accepted flit rate average= 0.0099375
	minimum = 0.004 (at node 9)
	maximum = 0.016 (at node 0)
Injected packet length average = 1
Accepted packet length average = 1
Total in-flight flits = 4 (0 measured)
latency change    = 0.0470292
throughput change = 0.00628931
Warmed up ...Time used is 3000 cycles
Class 0:
Packet latency average = 31.5197
	minimum = 7
	maximum = 67
Network latency average = 31.5197
	minimum = 7
	maximum = 67
Slowest packet = 12544
Flit latency average = 31.6603
	minimum = 7
	maximum = 67
Slowest flit = 12544
Fragmentation average = 0
	minimum = 0
	maximum = 0
Injected packet rate average = 0.0099375
	minimum = 0.006 (at node 3)
	maximum = 0.017 (at node 8)
Accepted packet rate average = 0.00975
	minimum = 0.005 (at node 12)
	maximum = 0.015 (at node 2)
Injected flit rate average = 0.0099375
	minimum = 0.006 (at node 3)
	maximum = 0.017 (at node 8)
Accepted flit rate average= 0.00975
	minimum = 0.005 (at node 12)
	maximum = 0.015 (at node 2)
Injected packet length average = 1
Accepted packet length average = 1
Total in-flight flits = 7 (7 measured)
latency change    = 0.0673157
throughput change = 0.0192308
Class 0:
Packet latency average = 31.1672
	minimum = 7
	maximum = 67
Network latency average = 31.1672
	minimum = 7
	maximum = 67
Slowest packet = 12544
Flit latency average = 31.2427
	minimum = 7
	maximum = 67
Slowest flit = 12544
Fragmentation average = 0
	minimum = 0
	maximum = 0
Injected packet rate average = 0.00965625
	minimum = 0.006 (at node 3)
	maximum = 0.0135 (at node 8)
Accepted packet rate average = 0.00965625
	minimum = 0.006 (at node 12)
	maximum = 0.0135 (at node 2)
Injected flit rate average = 0.00965625
	minimum = 0.006 (at node 3)
	maximum = 0.0135 (at node 8)
Accepted flit rate average= 0.00965625
	minimum = 0.006 (at node 12)
	maximum = 0.0135 (at node 2)
Injected packet length average = 1
Accepted packet length average = 1
Total in-flight flits = 4 (4 measured)
latency change    = 0.0113107
throughput change = 0.00970874
Class 0:
Packet latency average = 31.3305
	minimum = 7
	maximum = 67
Network latency average = 31.3305
	minimum = 7
	maximum = 67
Slowest packet = 12544
Flit latency average = 31.3787
	minimum = 7
	maximum = 67
Slowest flit = 12544
Fragmentation average = 0
	minimum = 0
	maximum = 0
Injected packet rate average = 0.0098125
	minimum = 0.00633333 (at node 9)
	maximum = 0.0143333 (at node 8)
Accepted packet rate average = 0.00979167
	minimum = 0.00633333 (at node 6)
	maximum = 0.0143333 (at node 2)
Injected flit rate average = 0.0098125
	minimum = 0.00633333 (at node 9)
	maximum = 0.0143333 (at node 8)
Accepted flit rate average= 0.00979167
	minimum = 0.00633333 (at node 6)
	maximum = 0.0143333 (at node 2)
Injected packet length average = 1
Accepted packet length average = 1
Total in-flight flits = 5 (5 measured)
latency change    = 0.00521087
throughput change = 0.0138298
Class 0:
Packet latency average = 31.5903
	minimum = 7
	maximum = 67
Network latency average = 31.5903
	minimum = 7
	maximum = 67
Slowest packet = 12544
Flit latency average = 31.625
	minimum = 7
	maximum = 67
Slowest flit = 12544
Fragmentation average = 0
	minimum = 0
	maximum = 0
Injected packet rate average = 0.00970312
	minimum = 0.0065 (at node 9)
	maximum = 0.014 (at node 8)
Accepted packet rate average = 0.00975
	minimum = 0.0065 (at node 6)
	maximum = 0.014 (at node 2)
Injected flit rate average = 0.00970312
	minimum = 0.0065 (at node 9)
	maximum = 0.014 (at node 8)
Accepted flit rate average= 0.00975
	minimum = 0.0065 (at node 6)
	maximum = 0.014 (at node 2)
Injected packet length average = 1
Accepted packet length average = 1
Total in-flight flits = 1 (1 measured)
latency change    = 0.00822564
throughput change = 0.0042735
Draining all recorded packets ...
Draining remaining packets ...
Time taken is 7005 cycles
Class 0:
Packet latency average = 33.0604
	minimum = 17
	maximum = 67
Network latency average = 33.0604
	minimum = 17
	maximum = 67
Slowest packet = 13251
Flit latency average = 33.0604
	minimum = 17
	maximum = 67
Slowest flit = 13251
Fragmentation average = 0
	minimum = 0
	maximum = 0
Injected packet rate average = 0.0094375
	minimum = 0.005 (at node 5)
	maximum = 0.014 (at node 9)
Accepted packet rate average = 0.0093125
	minimum = 0.005 (at node 5)
	maximum = 0.013 (at node 6)
Injected flit rate average = 0.0094375
	minimum = 0.005 (at node 5)
	maximum = 0.014 (at node 9)
Accepted flit rate average= 0.0093125
	minimum = 0.005 (at node 5)
	maximum = 0.013 (at node 6)
Injected packet length average = 1
Accepted packet length average = 1
Total in-flight flits = 2 (0 measured)
latency change    = 1
throughput change = 1
Class 0:
Packet latency average = 31.7068
	minimum = 7
	maximum = 67
Network latency average = 31.7068
	minimum = 7
	maximum = 67
Slowest packet = 13251
Flit latency average = 31.7068
	minimum = 7
	maximum = 67
Slowest flit = 13251
Fragmentation average = 0
	minimum = 0
	maximum = 0
Injected packet rate average = 0.0102813
	minimum = 0.0065 (at node 5)
	maximum = 0.014 (at node 4)
Accepted packet rate average = 0.010125
	minimum = 0.0065 (at node 5)
	maximum = 0.0135 (at node 1)
Injected flit rate average = 0.0102813
	minimum = 0.0065 (at node 5)
	maximum = 0.014 (at node 4)
Accepted flit rate average= 0.010125
	minimum = 0.0065 (at node 5)
	maximum = 0.0135 (at node 1)
Injected packet length average = 1
Accepted packet length average = 1
Total in-flight flits = 5 (0 measured)
latency change    = 0.0426916
throughput change = 0.0802469
Class 0:
Packet latency average = 32.764
	minimum = 7
	maximum = 67
Network latency average = 32.764
	minimum = 7
	maximum = 67
Slowest packet = 13473
Flit latency average = 32.764
	minimum = 7
	maximum = 67
Slowest flit = 13473
Fragmentation average = 0
	minimum = 0
	maximum = 0
Injected packet rate average = 0.0100625
	minimum = 0.004 (at node 4)
	maximum = 0.017 (at node 5)
Accepted packet rate average = 0.0100625
	minimum = 0.004 (at node 8)
	maximum = 0.017 (at node 5)
Injected flit rate average = 0.0100625
	minimum = 0.004 (at node 4)
	maximum = 0.017 (at node 5)
Accepted flit rate average= 0.0100625
	minimum = 0.004 (at node 8)
	maximum = 0.017 (at node 5)
Injected packet length average = 1
Accepted packet length average = 1
Total in-flight flits = 5 (0 measured)
latency change    = 0.0322667
throughput change = 0.00621118
Warmed up ...Time used is 3000 cycles
Class 0:
Packet latency average = 31.4167
	minimum = 7
	maximum = 58
Network latency average = 31.4167
	minimum = 7
	maximum = 58
Slowest packet = 13673
Flit latency average = 31.8054
	minimum = 7
	maximum = 58
Slowest flit = 13673
Fragmentation average = 0
	minimum = 0
	maximum = 0
Injected packet rate average = 0.0094375
	minimum = 0.005 (at node 10)
	maximum = 0.014 (at node 5)
Accepted packet rate average = 0.0093125
	minimum = 0.005 (at node 10)
	maximum = 0.014 (at node 5)
Injected flit rate average = 0.0094375
	minimum = 0.005 (at node 10)
	maximum = 0.014 (at node 5)
Accepted flit rate average= 0.0093125
	minimum = 0.005 (at node 10)
	maximum = 0.014 (at node 5)
Injected packet length average = 1
Accepted packet length average = 1
Total in-flight flits = 7 (7 measured)
latency change    = 0.0428852
throughput change = 0.0805369
Class 0:
Packet latency average = 31.1786
	minimum = 7
	maximum = 67
Network latency average = 31.1786
	minimum = 7
	maximum = 67
Slowest packet = 13807
Flit latency average = 31.3674
	minimum = 7
	maximum = 67
Slowest flit = 13807
Fragmentation average = 0
	minimum = 0
	maximum = 0
Injected packet rate average = 0.00965625
	minimum = 0.007 (at node 1)
	maximum = 0.0145 (at node 4)
Accepted packet rate average = 0.00978125
	minimum = 0.007 (at node 4)
	maximum = 0.0145 (at node 1)
Injected flit rate average = 0.00965625
	minimum = 0.007 (at node 1)
	maximum = 0.0145 (at node 4)
Accepted flit rate average= 0.00978125
	minimum = 0.007 (at node 4)
	maximum = 0.0145 (at node 1)
Injected packet length average = 1
Accepted packet length average = 1
Total in-flight flits = 1 (1 measured)
latency change    = 0.0076365
throughput change = 0.0479233
Class 0:
Packet latency average = 31.5493
	minimum = 7
	maximum = 67
Network latency average = 31.5493
	minimum = 7
	maximum = 67
Slowest packet = 13807
Flit latency average = 31.6763
	minimum = 7
	maximum = 67
Slowest flit = 13807
Fragmentation average = 0
	minimum = 0
	maximum = 0
Injected packet rate average = 0.00939583
	minimum = 0.007 (at node 15)
	maximum = 0.0126667 (at node 13)
Accepted packet rate average = 0.00939583
	minimum = 0.007 (at node 15)
	maximum = 0.0123333 (at node 7)
Injected flit rate average = 0.00939583
	minimum = 0.007 (at node 15)
	maximum = 0.0126667 (at node 13)
Accepted flit rate average= 0.00939583
	minimum = 0.007 (at node 15)
	maximum = 0.0123333 (at node 7)
Injected packet length average = 1
Accepted packet length average = 1
Total in-flight flits = 5 (5 measured)
latency change    = 0.0117516
throughput change = 0.04102
Class 0:
Packet latency average = 31.7189
	minimum = 7
	maximum = 67
Network latency average = 31.7189
	minimum = 7
	maximum = 67
Slowest packet = 13807
Flit latency average = 31.8142
	minimum = 7
	maximum = 67
Slowest flit = 13807
Fragmentation average = 0
	minimum = 0
	maximum = 0
Injected packet rate average = 0.00926562
	minimum = 0.00675 (at node 15)
	maximum = 0.01275 (at node 4)
Accepted packet rate average = 0.00925
	minimum = 0.00675 (at node 15)
	maximum = 0.01275 (at node 1)
Injected flit rate average = 0.00926562
	minimum = 0.00675 (at node 15)
	maximum = 0.01275 (at node 4)
Accepted flit rate average= 0.00925
	minimum = 0.00675 (at node 15)
	maximum = 0.01275 (at node 1)
Injected packet length average = 1
Accepted packet length average = 1
Total in-flight flits = 6 (6 measured)
latency change    = 0.00534641
throughput change = 0.0157658
Draining all recorded packets ...
Draining remaining packets ...
Time taken is 7057 cycles
Class 0:
Packet latency average = 32.0867
	minimum = 7
	maximum = 64
Network latency average = 32.0867
	minimum = 7
	maximum = 64
Slowest packet = 14236
Flit latency average = 32.0867
	minimum = 7
	maximum = 64
Slowest flit = 14236
Fragmentation average = 0
	minimum = 0
	maximum = 0
Injected packet rate average = 0.0095
	minimum = 0.004 (at node 1)
	maximum = 0.015 (at node 8)
Accepted packet rate average = 0.009375
	minimum = 0.004 (at node 4)
	maximum = 0.015 (at node 2)
Injected flit rate average = 0.0095
	minimum = 0.004 (at node 1)
	maximum = 0.015 (at node 8)
Accepted flit rate average= 0.009375
	minimum = 0.004 (at node 4)
	maximum = 0.015 (at node 2)
Injected packet length average = 1
Accepted packet length average = 1
Total in-flight flits = 2 (0 measured)
latency change    = 1
throughput change = 1
Class 0:
Packet latency average = 31.1453
	minimum = 7
	maximum = 67
Network latency average = 31.1453
	minimum = 7
	maximum = 67
Slowest packet = 14410
Flit latency average = 31.1453
	minimum = 7
	maximum = 67
Slowest flit = 14410
Fragmentation average = 0
	minimum = 0
	maximum = 0
Injected packet rate average = 0.00934375
	minimum = 0.0065 (at node 11)
	maximum = 0.0125 (at node 10)
Accepted packet rate average = 0.00925
	minimum = 0.0065 (at node 3)
	maximum = 0.0125 (at node 15)
Injected flit rate average = 0.00934375
	minimum = 0.0065 (at node 11)
	maximum = 0.0125 (at node 10)
Accepted flit rate average= 0.00925
	minimum = 0.0065 (at node 3)
	maximum = 0.0125 (at node 15)
Injected packet length average = 1
Accepted packet length average = 1
Total in-flight flits = 3 (0 measured)
latency change    = 0.030226
throughput change = 0.0135135
Class 0:
Packet latency average = 33.5245
	minimum = 17
	maximum = 57
Network latency average = 33.5245
	minimum = 17
	maximum = 57
Slowest packet = 14531
Flit latency average = 33.5245
	minimum = 17
	maximum = 57
Slowest flit = 14531
Fragmentation average = 0
	minimum = 0
	maximum = 0
Injected packet rate average = 0.0089375
	minimum = 0.003 (at node 4)
	maximum = 0.013 (at node 11)
Accepted packet rate average = 0.0089375
	minimum = 0.003 (at node 1)
	maximum = 0.014 (at node 10)
Injected flit rate average = 0.0089375
	minimum = 0.003 (at node 4)
	maximum = 0.013 (at node 11)
Accepted flit rate average= 0.0089375
	minimum = 0.003 (at node 1)
	maximum = 0.014 (at node 10)
Injected packet length average = 1
Accepted packet length average = 1
Total in-flight flits = 3 (0 measured)
latency change    = 0.0709692
throughput change = 0.034965
Warmed up ...Time used is 3000 cycles
Class 0:
[...]
	minimum = 0.0075 (at node 2)
	maximum = 0.013 (at node 6)
Accepted packet rate average = 0.0100625
	minimum = 0.0075 (at node 8)
	maximum = 0.013 (at node 9)
Injected flit rate average = 0.0102188
	minimum = 0.0075 (at node 2)
	maximum = 0.013 (at node 6)
Accepted flit rate average= 0.0100625
	minimum = 0.0075 (at node 8)
	maximum = 0.013 (at node 9)
Injected packet length average = 1
Accepted packet length average = 1
Total in-flight flits = 5 (0 measured)
latency change    = 0.0120887
throughput change = 0.0310559
Class 0:
Packet latency average = 32.6899
	minimum = 7
	maximum = 57
Network latency average = 32.6899
	minimum = 7
	maximum = 57
Slowest packet = 116406
Flit latency average = 32.6899
	minimum = 7
	maximum = 57
Slowest flit = 116406
Fragmentation average = 0
	minimum = 0
	maximum = 0
Injected packet rate average = 0.009875
	minimum = 0.005 (at node 0)
	maximum = 0.014 (at node 3)
Accepted packet rate average = 0.009875
	minimum = 0.005 (at node 0)
	maximum = 0.016 (at node 12)
Injected flit rate average = 0.009875
	minimum = 0.005 (at node 0)
	maximum = 0.014 (at node 3)
Accepted flit rate average= 0.009875
	minimum = 0.005 (at node 0)
	maximum = 0.016 (at node 12)
Injected packet length average = 1
Accepted packet length average = 1
Total in-flight flits = 5 (0 measured)
latency change    = 0.0111284
throughput change = 0.0189873
Warmed up ...Time used is 3000 cycles
Class 0:
Packet latency average = 32.9718
	minimum = 7
	maximum = 67
Network latency average = 32.9718
	minimum = 7
	maximum = 67
Slowest packet = 116519
Flit latency average = 32.9048
	minimum = 7
	maximum = 67
Slowest flit = 116519
Fragmentation average = 0
	minimum = 0
	maximum = 0
Injected packet rate average = 0.009375
	minimum = 0.005 (at node 3)
	maximum = 0.016 (at node 9)
Accepted packet rate average = 0.0091875
	minimum = 0.005 (at node 10)
	maximum = 0.013 (at node 7)
Injected flit rate average = 0.009375
	minimum = 0.005 (at node 3)
	maximum = 0.016 (at node 9)
Accepted flit rate average= 0.0091875
	minimum = 0.005 (at node 10)
	maximum = 0.013 (at node 7)
Injected packet length average = 1
Accepted packet length average = 1
Total in-flight flits = 8 (8 measured)
latency change    = 0.00855147
throughput change = 0.0748299
Class 0:
Packet latency average = 32.1174
	minimum = 7
	maximum = 67
Network latency average = 32.1174
	minimum = 7
	maximum = 67
Slowest packet = 116519
Flit latency average = 32.099
	minimum = 7
	maximum = 67
Slowest flit = 116519
Fragmentation average = 0
	minimum = 0
	maximum = 0
Injected packet rate average = 0.0095625
	minimum = 0.007 (at node 7)
	maximum = 0.014 (at node 9)
Accepted packet rate average = 0.00946875
	minimum = 0.0075 (at node 2)
	maximum = 0.014 (at node 6)
Injected flit rate average = 0.0095625
	minimum = 0.007 (at node 7)
	maximum = 0.014 (at node 9)
Accepted flit rate average= 0.00946875
	minimum = 0.0075 (at node 2)
	maximum = 0.014 (at node 6)
Injected packet length average = 1
Accepted packet length average = 1
Total in-flight flits = 8 (8 measured)
latency change    = 0.0266018
throughput change = 0.029703
Class 0:
Packet latency average = 31.8463
	minimum = 7
	maximum = 67
Network latency average = 31.8463
	minimum = 7
	maximum = 67
Slowest packet = 116519
Flit latency average = 31.837
	minimum = 7
	maximum = 67
Slowest flit = 116519
Fragmentation average = 0
	minimum = 0
	maximum = 0
Injected packet rate average = 0.00952083
	minimum = 0.00733333 (at node 3)
	maximum = 0.013 (at node 9)
Accepted packet rate average = 0.00945833
	minimum = 0.00733333 (at node 2)
	maximum = 0.013 (at node 6)
Injected flit rate average = 0.00952083
	minimum = 0.00733333 (at node 3)
	maximum = 0.013 (at node 9)
Accepted flit rate average= 0.00945833
	minimum = 0.00733333 (at node 2)
	maximum = 0.013 (at node 6)
Injected packet length average = 1
Accepted packet length average = 1
Total in-flight flits = 8 (8 measured)
latency change    = 0.00851353
throughput change = 0.00110132
Class 0:
Packet latency average = 32.1882
	minimum = 7
	maximum = 67
Network latency average = 32.1882
	minimum = 7
	maximum = 67
Slowest packet = 116519
Flit latency average = 32.1783
	minimum = 7
	maximum = 67
Slowest flit = 116519
Fragmentation average = 0
	minimum = 0
	maximum = 0
Injected packet rate average = 0.009375
	minimum = 0.00725 (at node 3)
	maximum = 0.012 (at node 9)
Accepted packet rate average = 0.009375
	minimum = 0.007 (at node 12)
	maximum = 0.012 (at node 6)
Injected flit rate average = 0.009375
	minimum = 0.00725 (at node 3)
	maximum = 0.012 (at node 9)
Accepted flit rate average= 0.009375
	minimum = 0.007 (at node 12)
	maximum = 0.012 (at node 6)
Injected packet length average = 1
Accepted packet length average = 1
Total in-flight flits = 5 (5 measured)
latency change    = 0.0106222
throughput change = 0.00888889
Draining all recorded packets ...
Draining remaining packets ...
Time taken is 7063 cycles
Class 0:
Packet latency average = 31.8725
	minimum = 7
	maximum = 57
Network latency average = 31.8725
	minimum = 7
	maximum = 57
Slowest packet = 117128
Flit latency average = 31.8725
	minimum = 7
	maximum = 57
Slowest flit = 117128
Fragmentation average = 0
	minimum = 0
	maximum = 0
Injected packet rate average = 0.0095625
	minimum = 0.002 (at node 9)
	maximum = 0.017 (at node 5)
Accepted packet rate average = 0.0093125
	minimum = 0.002 (at node 6)
	maximum = 0.016 (at node 5)
Injected flit rate average = 0.0095625
	minimum = 0.002 (at node 9)
	maximum = 0.017 (at node 5)
Accepted flit rate average= 0.0093125
	minimum = 0.002 (at node 6)
	maximum = 0.016 (at node 5)
Injected packet length average = 1
Accepted packet length average = 1
Total in-flight flits = 4 (0 measured)
latency change    = 1
throughput change = 1
Class 0:
Packet latency average = 31.3864
	minimum = 7
	maximum = 67
Network latency average = 31.3864
	minimum = 7
	maximum = 67
Slowest packet = 117375
Flit latency average = 31.3864
	minimum = 7
	maximum = 67
Slowest flit = 117375
Fragmentation average = 0
	minimum = 0
	maximum = 0
Injected packet rate average = 0.009875
	minimum = 0.0055 (at node 9)
	maximum = 0.0135 (at node 11)
Accepted packet rate average = 0.009625
	minimum = 0.0055 (at node 6)
	maximum = 0.013 (at node 14)
Injected flit rate average = 0.009875
	minimum = 0.0055 (at node 9)
	maximum = 0.0135 (at node 11)
Accepted flit rate average= 0.009625
	minimum = 0.0055 (at node 6)
	maximum = 0.013 (at node 14)
Injected packet length average = 1
Accepted packet length average = 1
Total in-flight flits = 8 (0 measured)
latency change    = 0.0154882
throughput change = 0.0324675
Class 0:
Packet latency average = 31.3274
	minimum = 7
	maximum = 67
Network latency average = 31.3274
	minimum = 7
	maximum = 67
Slowest packet = 117586
Flit latency average = 31.3274
	minimum = 7
	maximum = 67
Slowest flit = 117586
Fragmentation average = 0
	minimum = 0
	maximum = 0
Injected packet rate average = 0.01025
	minimum = 0.004 (at node 5)
	maximum = 0.018 (at node 7)
Accepted packet rate average = 0.0105
	minimum = 0.004 (at node 5)
	maximum = 0.019 (at node 4)
Injected flit rate average = 0.01025
	minimum = 0.004 (at node 5)
	maximum = 0.018 (at node 7)
Accepted flit rate average= 0.0105
	minimum = 0.004 (at node 5)
	maximum = 0.019 (at node 4)
Injected packet length average = 1
Accepted packet length average = 1
Total in-flight flits = 4 (0 measured)
latency change    = 0.00188278
throughput change = 0.0833333
Warmed up ...Time used is 3000 cycles
Class 0:
Packet latency average = 30.7594
	minimum = 7
	maximum = 68
Network latency average = 30.7594
	minimum = 7
	maximum = 68
Slowest packet = 117741
Flit latency average = 30.8429
	minimum = 7
	maximum = 68
Slowest flit = 117741
Fragmentation average = 0
	minimum = 0
	maximum = 0
Injected packet rate average = 0.0121875
	minimum = 0.006 (at node 6)
	maximum = 0.019 (at node 0)
Accepted packet rate average = 0.0119375
	minimum = 0.005 (at node 9)
	maximum = 0.019 (at node 10)
Injected flit rate average = 0.0121875
	minimum = 0.006 (at node 6)
	maximum = 0.019 (at node 0)
Accepted flit rate average= 0.0119375
	minimum = 0.005 (at node 9)
	maximum = 0.019 (at node 10)
Injected packet length average = 1
Accepted packet length average = 1
Total in-flight flits = 8 (8 measured)
latency change    = 0.0184667
throughput change = 0.120419
Class 0:
Packet latency average = 31.7514
	minimum = 7
	maximum = 68
Network latency average = 31.7514
	minimum = 7
	maximum = 68
Slowest packet = 117741
Flit latency average = 31.7845
	minimum = 7
	maximum = 68
Slowest flit = 117741
Fragmentation average = 0
	minimum = 0
	maximum = 0
Injected packet rate average = 0.0114062
	minimum = 0.0075 (at node 14)
	maximum = 0.015 (at node 12)
Accepted packet rate average = 0.0113125
	minimum = 0.0075 (at node 11)
	maximum = 0.0155 (at node 3)
Injected flit rate average = 0.0114062
	minimum = 0.0075 (at node 14)
	maximum = 0.015 (at node 12)
Accepted flit rate average= 0.0113125
	minimum = 0.0075 (at node 11)
	maximum = 0.0155 (at node 3)
Injected packet length average = 1
Accepted packet length average = 1
Total in-flight flits = 7 (7 measured)
latency change    = 0.0312439
throughput change = 0.0552486
Class 0:
Packet latency average = 31.4796
	minimum = 7
	maximum = 68
Network latency average = 31.4796
	minimum = 7
	maximum = 68
Slowest packet = 117741
Flit latency average = 31.5048
	minimum = 7
	maximum = 68
Slowest flit = 117741
Fragmentation average = 0
	minimum = 0
	maximum = 0
Injected packet rate average = 0.010875
	minimum = 0.00766667 (at node 14)
	maximum = 0.0126667 (at node 2)
Accepted packet rate average = 0.0108125
	minimum = 0.00766667 (at node 11)
	maximum = 0.0126667 (at node 3)
Injected flit rate average = 0.010875
	minimum = 0.00766667 (at node 14)
	maximum = 0.0126667 (at node 2)
Accepted flit rate average= 0.0108125
	minimum = 0.00766667 (at node 11)
	maximum = 0.0126667 (at node 3)
Injected packet length average = 1
Accepted packet length average = 1
Total in-flight flits = 7 (7 measured)
latency change    = 0.00863368
throughput change = 0.0462428
Class 0:
Packet latency average = 31.8178
	minimum = 7
	maximum = 68
Network latency average = 31.8178
	minimum = 7
	maximum = 68
Slowest packet = 117741
Flit latency average = 31.8348
	minimum = 7
	maximum = 68
Slowest flit = 117741
Fragmentation average = 0
	minimum = 0
	maximum = 0
Injected packet rate average = 0.0107656
	minimum = 0.00875 (at node 6)
	maximum = 0.01225 (at node 8)
Accepted packet rate average = 0.0107812
	minimum = 0.0085 (at node 9)
	maximum = 0.0125 (at node 2)
Injected flit rate average = 0.0107656
	minimum = 0.00875 (at node 6)
	maximum = 0.01225 (at node 8)
Accepted flit rate average= 0.0107812
	minimum = 0.0085 (at node 9)
	maximum = 0.0125 (at node 2)
Injected packet length average = 1
Accepted packet length average = 1
Total in-flight flits = 3 (3 measured)
latency change    = 0.0106284
throughput change = 0.00289855
Class 0:
Packet latency average = 31.9222
	minimum = 7
	maximum = 68
Network latency average = 31.9222
	minimum = 7
	maximum = 68
Slowest packet = 117741
Flit latency average = 31.9353
	minimum = 7
	maximum = 68
Slowest flit = 117741
Fragmentation average = 0
	minimum = 0
	maximum = 0
Injected packet rate average = 0.0108375
	minimum = 0.0094 (at node 4)
	maximum = 0.0128 (at node 10)
Accepted packet rate average = 0.0108125
	minimum = 0.0094 (at node 11)
	maximum = 0.0128 (at node 10)
Injected flit rate average = 0.0108375
	minimum = 0.0094 (at node 4)
	maximum = 0.0128 (at node 10)
Accepted flit rate average= 0.0108125
	minimum = 0.0094 (at node 11)
	maximum = 0.0128 (at node 10)
Injected packet length average = 1
Accepted packet length average = 1
Total in-flight flits = 6 (6 measured)
latency change    = 0.00327043
throughput change = 0.00289017
Draining all recorded packets ...
Draining remaining packets ...
Time taken is 8084 cycles
Class 0:
Packet latency average = 31.7632
	minimum = 17
	maximum = 57
Network latency average = 31.7632
	minimum = 17
	maximum = 57
Slowest packet = 118483
Flit latency average = 31.7632
	minimum = 17
	maximum = 57
Slowest flit = 118483
Fragmentation average = 0
	minimum = 0
	maximum = 0
Injected packet rate average = 0.0099375
	minimum = 0.004 (at node 13)
	maximum = 0.016 (at node 5)
Accepted packet rate average = 0.0095
	minimum = 0.004 (at node 7)
	maximum = 0.016 (at node 5)
Injected flit rate average = 0.0099375
	minimum = 0.004 (at node 13)
	maximum = 0.016 (at node 5)
Accepted flit rate average= 0.0095
	minimum = 0.004 (at node 7)
	maximum = 0.016 (at node 5)
Injected packet length average = 1
Accepted packet length average = 1
Total in-flight flits = 7 (0 measured)
latency change    = 1
throughput change = 1
Class 0:
Packet latency average = 31.3808
	minimum = 7
	maximum = 57
Network latency average = 31.3808
	minimum = 7
	maximum = 57
Slowest packet = 118483
Flit latency average = 31.3808
	minimum = 7
	maximum = 57
Slowest flit = 118483
Fragmentation average = 0
	minimum = 0
	maximum = 0
Injected packet rate average = 0.00965625
	minimum = 0.007 (at node 2)
	maximum = 0.015 (at node 5)
Accepted packet rate average = 0.0094375
	minimum = 0.007 (at node 3)
	maximum = 0.015 (at node 5)
Injected flit rate average = 0.00965625
	minimum = 0.007 (at node 2)
	maximum = 0.015 (at node 5)
Accepted flit rate average= 0.0094375
	minimum = 0.007 (at node 3)
	maximum = 0.015 (at node 5)
Injected packet length average = 1
Accepted packet length average = 1
Total in-flight flits = 7 (0 measured)
latency change    = 0.0121846
throughput change = 0.00662252
Class 0:
Packet latency average = 31.5588
	minimum = 7
	maximum = 67
Network latency average = 31.5588
	minimum = 7
	maximum = 67
Slowest packet = 118785
Flit latency average = 31.5588
	minimum = 7
	maximum = 67
Slowest flit = 118785
Fragmentation average = 0
	minimum = 0
	maximum = 0
Injected packet rate average = 0.0103125
	minimum = 0.003 (at node 8)
	maximum = 0.017 (at node 0)
Accepted packet rate average = 0.010625
	minimum = 0.003 (at node 2)
	maximum = 0.016 (at node 0)
Injected flit rate average = 0.0103125
	minimum = 0.003 (at node 8)
	maximum = 0.017 (at node 0)
Accepted flit rate average= 0.010625
	minimum = 0.003 (at node 2)
	maximum = 0.016 (at node 0)
Injected packet length average = 1
Accepted packet length average = 1
Total in-flight flits = 2 (0 measured)
latency change    = 0.00564117
throughput change = 0.111765
Warmed up ...Time used is 3000 cycles
Class 0:
Packet latency average = 30.1471
	minimum = 7
	maximum = 57
Network latency average = 30.1471
	minimum = 7
	maximum = 57
Slowest packet = 118968
Flit latency average = 30.3188
	minimum = 7
	maximum = 57
Slowest flit = 118945
Fragmentation average = 0
	minimum = 0
	maximum = 0
Injected packet rate average = 0.0088125
	minimum = 0.004 (at node 8)
	maximum = 0.017 (at node 15)
Accepted packet rate average = 0.008625
	minimum = 0.004 (at node 2)
	maximum = 0.016 (at node 15)
Injected flit rate average = 0.0088125
	minimum = 0.004 (at node 8)
	maximum = 0.017 (at node 15)
Accepted flit rate average= 0.008625
	minimum = 0.004 (at node 2)
	maximum = 0.016 (at node 15)
Injected packet length average = 1
Accepted packet length average = 1
Total in-flight flits = 5 (5 measured)
latency change    = 0.0468293
throughput change = 0.231884
Class 0:
Packet latency average = 32.2027
	minimum = 7
	maximum = 69
Network latency average = 32.2027
	minimum = 7
	maximum = 69
Slowest packet = 119172
Flit latency average = 32.2696
	minimum = 7
	maximum = 69
Slowest flit = 119172
Fragmentation average = 0
	minimum = 0
	maximum = 0
Injected packet rate average = 0.00921875
	minimum = 0.0065 (at node 12)
	maximum = 0.0135 (at node 15)
Accepted packet rate average = 0.00915625
	minimum = 0.006 (at node 3)
	maximum = 0.0135 (at node 15)
Injected flit rate average = 0.00921875
	minimum = 0.0065 (at node 12)
	maximum = 0.0135 (at node 15)
Accepted flit rate average= 0.00915625
	minimum = 0.006 (at node 3)
	maximum = 0.0135 (at node 15)
Injected packet length average = 1
Accepted packet length average = 1
Total in-flight flits = 4 (4 measured)
latency change    = 0.0638359
throughput change = 0.0580205
Class 0:
Packet latency average = 31.8568
	minimum = 7
	maximum = 69
Network latency average = 31.8568
	minimum = 7
	maximum = 69
Slowest packet = 119172
Flit latency average = 31.9027
	minimum = 7
	maximum = 69
Slowest flit = 119172
Fragmentation average = 0
	minimum = 0
	maximum = 0
Injected packet rate average = 0.00929167
	minimum = 0.00533333 (at node 12)
	maximum = 0.0143333 (at node 15)
Accepted packet rate average = 0.00920833
	minimum = 0.00533333 (at node 3)
	maximum = 0.014 (at node 15)
Injected flit rate average = 0.00929167
	minimum = 0.00533333 (at node 12)
	maximum = 0.0143333 (at node 15)
Accepted flit rate average= 0.00920833
	minimum = 0.00533333 (at node 3)
	maximum = 0.014 (at node 15)
Injected packet length average = 1
Accepted packet length average = 1
Total in-flight flits = 6 (6 measured)
latency change    = 0.0108589
throughput change = 0.00565611
Class 0:
Packet latency average = 31.5799
	minimum = 7
	maximum = 69
Network latency average = 31.5799
	minimum = 7
	maximum = 69
Slowest packet = 119172
Flit latency average = 31.6141
	minimum = 7
	maximum = 69
Slowest flit = 119172
Fragmentation average = 0
	minimum = 0
	maximum = 0
Injected packet rate average = 0.0095625
	minimum = 0.00675 (at node 12)
	maximum = 0.0125 (at node 15)
Accepted packet rate average = 0.00951562
	minimum = 0.00675 (at node 3)
	maximum = 0.0125 (at node 15)
Injected flit rate average = 0.0095625
	minimum = 0.00675 (at node 12)
	maximum = 0.0125 (at node 15)
Accepted flit rate average= 0.00951562
	minimum = 0.00675 (at node 3)
	maximum = 0.0125 (at node 15)
Injected packet length average = 1
Accepted packet length average = 1
Total in-flight flits = 5 (5 measured)
latency change    = 0.00876877
throughput change = 0.0322934
Class 0:
Packet latency average = 31.8033
	minimum = 7
	maximum = 69
Network latency average = 31.8033
	minimum = 7
	maximum = 69
Slowest packet = 119172
Flit latency average = 31.8295
	minimum = 7
	maximum = 69
Slowest flit = 119172
Fragmentation average = 0
	minimum = 0
	maximum = 0
Injected packet rate average = 0.0097875
	minimum = 0.0074 (at node 12)
	maximum = 0.0118 (at node 7)
Accepted packet rate average = 0.00975
	minimum = 0.0074 (at node 3)
	maximum = 0.0118 (at node 13)
Injected flit rate average = 0.0097875
	minimum = 0.0074 (at node 12)
	maximum = 0.0118 (at node 7)
Accepted flit rate average= 0.00975
	minimum = 0.0074 (at node 3)
	maximum = 0.0118 (at node 13)
Injected packet length average = 1
Accepted packet length average = 1
Total in-flight flits = 5 (5 measured)
latency change    = 0.0070257
throughput change = 0.0240385
Draining all recorded packets ...
Draining remaining packets ...
Time taken is 8095 cycles
====== Overall Traffic Statistics ======
====== Traffic class 0 ======
Packet latency average = 32.125 (100 samples)
	minimum = 7 (100 samples)
	maximum = 67.7 (100 samples)
Network latency average = 32.125 (100 samples)
	minimum = 7 (100 samples)
	maximum = 67.7 (100 samples)
Flit latency average = 32.1387 (100 samples)
	minimum = 7 (100 samples)
	maximum = 67.7 (100 samples)
Fragmentation average = 0 (100 samples)
	minimum = 0 (100 samples)
	maximum = 0 (100 samples)
Injected packet rate average = 0.00999556 (100 samples)
	minimum = 0.00732036 (100 samples)
	maximum = 0.012793 (100 samples)
Accepted packet rate average = 0.00999942 (100 samples)
	minimum = 0.00733421 (100 samples)
	maximum = 0.0128134 (100 samples)
Injected flit rate average = 0.00999556 (100 samples)
	minimum = 0.00732036 (100 samples)
	maximum = 0.012793 (100 samples)
Accepted flit rate average = 0.00999942 (100 samples)
	minimum = 0.00733421 (100 samples)
	maximum = 0.0128134 (100 samples)
Injected packet size average = 1 (100 samples)
Accepted packet size average = 1 (100 samples)
Hops average = 6.01162 (100 samples)
Total run time 5.00653
