BEGIN Configuration File: /tmp/bs_1137237_692052.cfg
topology = mesh;
k = 4;
n = 2;
routing_function = gnn_ppo_route_4x4;
num_vcs = 4;
vc_buf_size = 4;
wait_for_tail_credit = 1;
vc_allocator = islip;
sw_allocator = islip;
alloc_iters = 1;
credit_delay = 2;
routing_delay = 1;
vc_alloc_delay = 1;
sw_alloc_delay = 1;
input_speedup = 2;
output_speedup = 1;
internal_speedup = 1.0;
traffic = transpose;
packet_size = 1;
sim_type = latency;
injection_rate = 0.02;
warmup_periods = 3;
sample_period = 1000;
sim_count = 100;
seed = 3;

END Configuration File: /tmp/bs_1137237_692052.cfg
Class 0:
Packet latency average = 19.2393
	minimum = 7
	maximum = 38
Network latency average = 19.2393
	minimum = 7
	maximum = 38
Slowest packet = 255
Flit latency average = 19.2393
	minimum = 7
	maximum = 38
Slowest flit = 255
Fragmentation average = 0
	minimum = 0
	maximum = 0
Injected packet rate average = 0.0194375
	minimum = 0.011 (at node 12)
	maximum = 0.032 (at node 13)
Accepted packet rate average = 0.0190625
	minimum = 0.01 (at node 3)
	maximum = 0.03 (at node 7)
Injected flit rate average = 0.0194375
	minimum = 0.011 (at node 12)
	maximum = 0.032 (at node 13)
Accepted flit rate average= 0.0190625
	minimum = 0.01 (at node 3)
	maximum = 0.03 (at node 7)
Injected packet length average = 1
Accepted packet length average = 1
Total in-flight flits = 6 (0 measured)
latency change    = 1
throughput change = 1
Class 0:
Packet latency average = 18.9983
	minimum = 7
	maximum = 38
Network latency average = 18.9983
	minimum = 7
	maximum = 38
Slowest packet = 255
Flit latency average = 18.9983
	minimum = 7
	maximum = 38
Slowest flit = 255
Fragmentation average = 0
	minimum = 0
	maximum = 0
Injected packet rate average = 0.019
	minimum = 0.014 (at node 12)
	maximum = 0.025 (at node 11)
Accepted packet rate average = 0.0188437
	minimum = 0.014 (at node 3)
	maximum = 0.0245 (at node 14)
Injected flit rate average = 0.019
	minimum = 0.014 (at node 12)
	maximum = 0.025 (at node 11)
Accepted flit rate average= 0.0188437
	minimum = 0.014 (at node 3)
	maximum = 0.0245 (at node 14)
Injected packet length average = 1
Accepted packet length average = 1
Total in-flight flits = 5 (0 measured)
latency change    = 0.0126855
throughput change = 0.0116086
Class 0:
Packet latency average = 20.4108
	minimum = 7
	maximum = 42
Network latency average = 20.4108
	minimum = 7
	maximum = 42
Slowest packet = 713
Flit latency average = 20.4108
	minimum = 7
	maximum = 42
Slowest flit = 713
Fragmentation average = 0
	minimum = 0
	maximum = 0
Injected packet rate average = 0.019625
	minimum = 0.013 (at node 9)
	maximum = 0.027 (at node 12)
Accepted packet rate average = 0.019625
	minimum = 0.013 (at node 6)
	maximum = 0.026 (at node 3)
Injected flit rate average = 0.019625
	minimum = 0.013 (at node 9)
	maximum = 0.027 (at node 12)
Accepted flit rate average= 0.019625
	minimum = 0.013 (at node 6)
	maximum = 0.026 (at node 3)
Injected packet length average = 1
Accepted packet length average = 1
Total in-flight flits = 5 (0 measured)
latency change    = 0.0692028
throughput change = 0.0398089
Warmed up ...Time used is 3000 cycles
Class 0:
Packet latency average = 19.6453
	minimum = 7
	maximum = 37
Network latency average = 19.6453
	minimum = 7
	maximum = 37
Slowest packet = 929
Flit latency average = 19.7674
	minimum = 7
	maximum = 37
Slowest flit = 914
Fragmentation average = 0
	minimum = 0
	maximum = 0
Injected packet rate average = 0.018875
	minimum = 0.01 (at node 2)
	maximum = 0.027 (at node 8)
Accepted packet rate average = 0.0188125
	minimum = 0.01 (at node 8)
	maximum = 0.028 (at node 2)
Injected flit rate average = 0.018875
	minimum = 0.01 (at node 2)
	maximum = 0.027 (at node 8)
Accepted flit rate average= 0.0188125
	minimum = 0.01 (at node 8)
	maximum = 0.028 (at node 2)
Injected packet length average = 1
Accepted packet length average = 1
Total in-flight flits = 6 (6 measured)
latency change    = 0.0389691
throughput change = 0.0431894
Class 0:
Packet latency average = 19.5114
	minimum = 7
	maximum = 38
Network latency average = 19.5114
	minimum = 7
	maximum = 38
Slowest packet = 1330
Flit latency average = 19.568
	minimum = 7
	maximum = 38
Slowest flit = 1330
Fragmentation average = 0
	minimum = 0
	maximum = 0
Injected packet rate average = 0.0207188
	minimum = 0.0155 (at node 2)
	maximum = 0.025 (at node 10)
Accepted packet rate average = 0.0206875
	minimum = 0.0155 (at node 8)
	maximum = 0.025 (at node 10)
Injected flit rate average = 0.0207188
	minimum = 0.0155 (at node 2)
	maximum = 0.025 (at node 10)
Accepted flit rate average= 0.0206875
	minimum = 0.0155 (at node 8)
	maximum = 0.025 (at node 10)
Injected packet length average = 1
Accepted packet length average = 1
Total in-flight flits = 6 (6 measured)
latency change    = 0.00686033
throughput change = 0.0906344
Class 0:
Packet latency average = 19.5122
	minimum = 7
	maximum = 38
Network latency average = 19.5122
	minimum = 7
	maximum = 38
Slowest packet = 1330
Flit latency average = 19.5501
	minimum = 7
	maximum = 38
Slowest flit = 1330
Fragmentation average = 0
	minimum = 0
	maximum = 0
Injected packet rate average = 0.0208125
	minimum = 0.015 (at node 2)
	maximum = 0.0246667 (at node 9)
Accepted packet rate average = 0.0206042
	minimum = 0.015 (at node 8)
	maximum = 0.0243333 (at node 6)
Injected flit rate average = 0.0208125
	minimum = 0.015 (at node 2)
	maximum = 0.0246667 (at node 9)
Accepted flit rate average= 0.0206042
	minimum = 0.015 (at node 8)
	maximum = 0.0243333 (at node 6)
Injected packet length average = 1
Accepted packet length average = 1
Total in-flight flits = 15 (15 measured)
latency change    = 3.99543e-05
throughput change = 0.00404449
Class 0:
Packet latency average = 19.2878
	minimum = 7
	maximum = 38
Network latency average = 19.2878
	minimum = 7
	maximum = 38
Slowest packet = 1330
Flit latency average = 19.3173
	minimum = 7
	maximum = 38
Slowest flit = 1330
Fragmentation average = 0
	minimum = 0
	maximum = 0
Injected packet rate average = 0.0204531
	minimum = 0.01625 (at node 3)
	maximum = 0.02375 (at node 10)
Accepted packet rate average = 0.0204375
	minimum = 0.0165 (at node 12)
	maximum = 0.02375 (at node 10)
Injected flit rate average = 0.0204531
	minimum = 0.01625 (at node 3)
	maximum = 0.02375 (at node 10)
Accepted flit rate average= 0.0204375
	minimum = 0.0165 (at node 12)
	maximum = 0.02375 (at node 10)
Injected packet length average = 1
Accepted packet length average = 1
Total in-flight flits = 6 (6 measured)
latency change    = 0.0116342
throughput change = 0.00815494
Class 0:
Packet latency average = 19.0987
	minimum = 7
	maximum = 38
Network latency average = 19.0987
	minimum = 7
	maximum = 38
Slowest packet = 1330
Flit latency average = 19.1227
	minimum = 7
	maximum = 38
Slowest flit = 1330
Fragmentation average = 0
	minimum = 0
	maximum = 0
Injected packet rate average = 0.020575
	minimum = 0.0166 (at node 3)
	maximum = 0.0234 (at node 5)
Accepted packet rate average = 0.020575
	minimum = 0.0166 (at node 12)
	maximum = 0.0234 (at node 5)
Injected flit rate average = 0.020575
	minimum = 0.0166 (at node 3)
	maximum = 0.0234 (at node 5)
Accepted flit rate average= 0.020575
	minimum = 0.0166 (at node 12)
	maximum = 0.0234 (at node 5)
Injected packet length average = 1
Accepted packet length average = 1
Total in-flight flits = 5 (5 measured)
latency change    = 0.00989999
throughput change = 0.00668287
Draining all recorded packets ...
Draining remaining packets ...
Time taken is 8044 cycles
Class 0:
Packet latency average = 19.517
	minimum = 7
	maximum = 38
Network latency average = 19.517
	minimum = 7
	maximum = 38
Slowest packet = 2700
Flit latency average = 19.517
	minimum = 7
	maximum = 38
Slowest flit = 2700
Fragmentation average = 0
	minimum = 0
	maximum = 0
Injected packet rate average = 0.022375
	minimum = 0.01 (at node 8)
	maximum = 0.029 (at node 6)
Accepted packet rate average = 0.022
	minimum = 0.01 (at node 2)
	maximum = 0.029 (at node 9)
Injected flit rate average = 0.022375
	minimum = 0.01 (at node 8)
	maximum = 0.029 (at node 6)
Accepted flit rate average= 0.022
	minimum = 0.01 (at node 2)
	maximum = 0.029 (at node 9)
Injected packet length average = 1
Accepted packet length average = 1
Total in-flight flits = 6 (0 measured)
latency change    = 1
throughput change = 1
Class 0:
Packet latency average = 19.3997
	minimum = 7
	maximum = 38
Network latency average = 19.3997
	minimum = 7
	maximum = 38
Slowest packet = 2700
Flit latency average = 19.3997
	minimum = 7
	maximum = 38
Slowest flit = 2700
Fragmentation average = 0
	minimum = 0
	maximum = 0
Injected packet rate average = 0.0214375
	minimum = 0.013 (at node 8)
	maximum = 0.024 (at node 2)
Accepted packet rate average = 0.0211875
	minimum = 0.013 (at node 2)
	maximum = 0.0235 (at node 1)
Injected flit rate average = 0.0214375
	minimum = 0.013 (at node 8)
	maximum = 0.024 (at node 2)
Accepted flit rate average= 0.0211875
	minimum = 0.013 (at node 2)
	maximum = 0.0235 (at node 1)
Injected packet length average = 1
Accepted packet length average = 1
Total in-flight flits = 8 (0 measured)
latency change    = 0.00604857
throughput change = 0.0383481
Class 0:
Packet latency average = 19.5901
	minimum = 7
	maximum = 38
Network latency average = 19.5901
	minimum = 7
	maximum = 38
Slowest packet = 3480
Flit latency average = 19.5901
	minimum = 7
	maximum = 38
Slowest flit = 3480
Fragmentation average = 0
	minimum = 0
	maximum = 0
Injected packet rate average = 0.019875
	minimum = 0.013 (at node 1)
	maximum = 0.028 (at node 14)
Accepted packet rate average = 0.020125
	minimum = 0.013 (at node 4)
	maximum = 0.026 (at node 11)
Injected flit rate average = 0.019875
	minimum = 0.013 (at node 1)
	maximum = 0.028 (at node 14)
Accepted flit rate average= 0.020125
	minimum = 0.013 (at node 4)
	maximum = 0.026 (at node 11)
Injected packet length average = 1
Accepted packet length average = 1
Total in-flight flits = 4 (0 measured)
latency change    = 0.00971702
throughput change = 0.052795
Warmed up ...Time used is 3000 cycles
Class 0:
Packet latency average = 19.1869
	minimum = 7
	maximum = 37
Network latency average = 19.1869
	minimum = 7
	maximum = 37
Slowest packet = 3574
Flit latency average = 19.2253
	minimum = 7
	maximum = 37
Slowest flit = 3570
Fragmentation average = 0
	minimum = 0
	maximum = 0
Injected packet rate average = 0.0181875
	minimum = 0.014 (at node 2)
	maximum = 0.026 (at node 1)
Accepted packet rate average = 0.0183125
	minimum = 0.014 (at node 7)
	maximum = 0.026 (at node 4)
Injected flit rate average = 0.0181875
	minimum = 0.014 (at node 2)
	maximum = 0.026 (at node 1)
Accepted flit rate average= 0.0183125
	minimum = 0.014 (at node 7)
	maximum = 0.026 (at node 4)
Injected packet length average = 1
Accepted packet length average = 1
Total in-flight flits = 2 (2 measured)
latency change    = 0.021015
throughput change = 0.0989761
Class 0:
Packet latency average = 19.8553
	minimum = 7
	maximum = 38
Network latency average = 19.8553
	minimum = 7
	maximum = 38
Slowest packet = 4103
Flit latency average = 19.869
	minimum = 7
	maximum = 38
Slowest flit = 4103
Fragmentation average = 0
	minimum = 0
	maximum = 0
Injected packet rate average = 0.0195312
	minimum = 0.015 (at node 14)
	maximum = 0.0265 (at node 1)
Accepted packet rate average = 0.0195625
	minimum = 0.015 (at node 15)
	maximum = 0.0265 (at node 4)
Injected flit rate average = 0.0195312
	minimum = 0.015 (at node 14)
	maximum = 0.0265 (at node 1)
Accepted flit rate average= 0.0195625
	minimum = 0.015 (at node 15)
	maximum = 0.0265 (at node 4)
Injected packet length average = 1
Accepted packet length average = 1
Total in-flight flits = 3 (3 measured)
latency change    = 0.0336663
throughput change = 0.0638978
Class 0:
Packet latency average = 19.7187
	minimum = 7
	maximum = 43
Network latency average = 19.7187
	minimum = 7
	maximum = 43
Slowest packet = 4518
Flit latency average = 19.7281
	minimum = 7
	maximum = 43
Slowest flit = 4518
Fragmentation average = 0
	minimum = 0
	maximum = 0
Injected packet rate average = 0.02025
	minimum = 0.017 (at node 10)
	maximum = 0.0246667 (at node 1)
Accepted packet rate average = 0.0202292
	minimum = 0.017 (at node 7)
	maximum = 0.0246667 (at node 4)
Injected flit rate average = 0.02025
	minimum = 0.017 (at node 10)
	maximum = 0.0246667 (at node 1)
Accepted flit rate average= 0.0202292
	minimum = 0.017 (at node 7)
	maximum = 0.0246667 (at node 4)
Injected packet length average = 1
Accepted packet length average = 1
Total in-flight flits = 5 (5 measured)
latency change    = 0.00692681
throughput change = 0.0329557
Class 0:
Packet latency average = 19.7606
	minimum = 7
	maximum = 43
Network latency average = 19.7606
	minimum = 7
	maximum = 43
Slowest packet = 4518
Flit latency average = 19.7676
	minimum = 7
	maximum = 43
Slowest flit = 4518
Fragmentation average = 0
	minimum = 0
	maximum = 0
Injected packet rate average = 0.0200781
	minimum = 0.01575 (at node 13)
	maximum = 0.02475 (at node 5)
Accepted packet rate average = 0.0200313
	minimum = 0.01575 (at node 7)
	maximum = 0.0245 (at node 5)
Injected flit rate average = 0.0200781
	minimum = 0.01575 (at node 13)
	maximum = 0.02475 (at node 5)
Accepted flit rate average= 0.0200313
	minimum = 0.01575 (at node 7)
	maximum = 0.0245 (at node 5)
Injected packet length average = 1
Accepted packet length average = 1
Total in-flight flits = 7 (7 measured)
latency change    = 0.00211764
throughput change = 0.0098804
Class 0:
Packet latency average = 19.7024
	minimum = 7
	maximum = 43
Network latency average = 19.7024
	minimum = 7
	maximum = 43
Slowest packet = 4518
Flit latency average = 19.7081
	minimum = 7
	maximum = 43
Slowest flit = 4518
Fragmentation average = 0
	minimum = 0
	maximum = 0
Injected packet rate average = 0.0200625
	minimum = 0.017 (at node 11)
	maximum = 0.024 (at node 1)
Accepted packet rate average = 0.02
	minimum = 0.017 (at node 14)
	maximum = 0.024 (at node 4)
Injected flit rate average = 0.0200625
	minimum = 0.017 (at node 11)
	maximum = 0.024 (at node 1)
Accepted flit rate average= 0.02
	minimum = 0.017 (at node 14)
	maximum = 0.024 (at node 4)
Injected packet length average = 1
Accepted packet length average = 1
Total in-flight flits = 9 (9 measured)
latency change    = 0.00295307
throughput change = 0.0015625
Draining all recorded packets ...
Draining remaining packets ...
Time taken is 8061 cycles
Class 0:
Packet latency average = 19.9425
	minimum = 7
	maximum = 41
Network latency average = 19.9425
	minimum = 7
	maximum = 41
Slowest packet = 5455
Flit latency average = 19.9425
	minimum = 7
	maximum = 41
Slowest flit = 5455
Fragmentation average = 0
	minimum = 0
	maximum = 0
Injected packet rate average = 0.0221875
	minimum = 0.013 (at node 5)
	maximum = 0.03 (at node 11)
Accepted packet rate average = 0.02175
	minimum = 0.013 (at node 5)
	maximum = 0.029 (at node 14)
Injected flit rate average = 0.0221875
	minimum = 0.013 (at node 5)
	maximum = 0.03 (at node 11)
Accepted flit rate average= 0.02175
	minimum = 0.013 (at node 5)
	maximum = 0.029 (at node 14)
Injected packet length average = 1
Accepted packet length average = 1
Total in-flight flits = 7 (0 measured)
latency change    = 1
throughput change = 1
Class 0:
Packet latency average = 20.0091
	minimum = 7
	maximum = 41
Network latency average = 20.0091
	minimum = 7
	maximum = 41
Slowest packet = 5455
Flit latency average = 20.0091
	minimum = 7
	maximum = 41
Slowest flit = 5455
Fragmentation average = 0
	minimum = 0
	maximum = 0
Injected packet rate average = 0.02075
	minimum = 0.0145 (at node 5)
	maximum = 0.0285 (at node 11)
Accepted packet rate average = 0.0205313
	minimum = 0.0145 (at node 5)
	maximum = 0.0285 (at node 14)
Injected flit rate average = 0.02075
	minimum = 0.0145 (at node 5)
	maximum = 0.0285 (at node 11)
Accepted flit rate average= 0.0205313
	minimum = 0.0145 (at node 5)
	maximum = 0.0285 (at node 14)
Injected packet length average = 1
Accepted packet length average = 1
Total in-flight flits = 7 (0 measured)
latency change    = 0.00332866
throughput change = 0.0593607
Class 0:
Packet latency average = 19.5282
	minimum = 7
	maximum = 38
Network latency average = 19.5282
	minimum = 7
	maximum = 38
Slowest packet = 6043
Flit latency average = 19.5282
	minimum = 7
	maximum = 38
Slowest flit = 6043
Fragmentation average = 0
	minimum = 0
	maximum = 0
Injected packet rate average = 0.021
	minimum = 0.014 (at node 9)
	maximum = 0.027 (at node 3)
Accepted packet rate average = 0.0210625
	minimum = 0.014 (at node 6)
	maximum = 0.026 (at node 1)
Injected flit rate average = 0.021
	minimum = 0.014 (at node 9)
	maximum = 0.027 (at node 3)
Accepted flit rate average= 0.0210625
	minimum = 0.014 (at node 6)
	maximum = 0.026 (at node 1)
Injected packet length average = 1
Accepted packet length average = 1
Total in-flight flits = 6 (0 measured)
latency change    = 0.0246281
throughput change = 0.0252226
Warmed up ...Time used is 3000 cycles
Class 0:
Packet latency average = 19.2061
	minimum = 7
	maximum = 38
Network latency average = 19.2061
	minimum = 7
	maximum = 38
Slowest packet = 6287
Flit latency average = 19.4345
	minimum = 7
	maximum = 38
Slowest flit = 6287
Fragmentation average = 0
	minimum = 0
	maximum = 0
Injected packet rate average = 0.020875
	minimum = 0.015 (at node 1)
	maximum = 0.032 (at node 5)
Accepted packet rate average = 0.021
	minimum = 0.014 (at node 1)
	maximum = 0.032 (at node 5)
Injected flit rate average = 0.020875
	minimum = 0.015 (at node 1)
	maximum = 0.032 (at node 5)
Accepted flit rate average= 0.021
	minimum = 0.014 (at node 1)
	maximum = 0.032 (at node 5)
Injected packet length average = 1
Accepted packet length average = 1
Total in-flight flits = 4 (4 measured)
latency change    = 0.0167723
throughput change = 0.00297619
Class 0:
Packet latency average = 19.7808
	minimum = 7
	maximum = 38
Network latency average = 19.7808
	minimum = 7
	maximum = 38
Slowest packet = 6287
Flit latency average = 19.8899
	minimum = 7
	maximum = 38
Slowest flit = 6287
Fragmentation average = 0
	minimum = 0
	maximum = 0
Injected packet rate average = 0.021
	minimum = 0.017 (at node 15)
	maximum = 0.0255 (at node 5)
Accepted packet rate average = 0.021
	minimum = 0.0165 (at node 15)
	maximum = 0.026 (at node 7)
Injected flit rate average = 0.021
	minimum = 0.017 (at node 15)
	maximum = 0.0255 (at node 5)
Accepted flit rate average= 0.021
	minimum = 0.0165 (at node 15)
	maximum = 0.026 (at node 7)
Injected packet length average = 1
Accepted packet length average = 1
Total in-flight flits = 6 (6 measured)
latency change    = 0.0290545
throughput change = 0
Class 0:
Packet latency average = 19.6104
	minimum = 7
	maximum = 38
Network latency average = 19.6104
	minimum = 7
	maximum = 38
Slowest packet = 6287
Flit latency average = 19.6846
	minimum = 7
	maximum = 38
Slowest flit = 6287
Fragmentation average = 0
	minimum = 0
	maximum = 0
Injected packet rate average = 0.0208333
	minimum = 0.0183333 (at node 2)
	maximum = 0.0243333 (at node 5)
Accepted packet rate average = 0.020875
	minimum = 0.0183333 (at node 13)
	maximum = 0.0246667 (at node 3)
Injected flit rate average = 0.0208333
	minimum = 0.0183333 (at node 2)
	maximum = 0.0243333 (at node 5)
Accepted flit rate average= 0.020875
	minimum = 0.0183333 (at node 13)
	maximum = 0.0246667 (at node 3)
Injected packet length average = 1
Accepted packet length average = 1
Total in-flight flits = 4 (4 measured)
latency change    = 0.00868614
throughput change = 0.00598802
Draining all recorded packets ...
Draining remaining packets ...
Time taken is 6035 cycles
Class 0:
Packet latency average = 19.4092
	minimum = 7
	maximum = 39
Network latency average = 19.4092
	minimum = 7
	maximum = 39
Slowest packet = 7251
Flit latency average = 19.4092
	minimum = 7
	maximum = 39
Slowest flit = 7251
Fragmentation average = 0
	minimum = 0
	maximum = 0
Injected packet rate average = 0.020625
	minimum = 0.014 (at node 7)
	maximum = 0.027 (at node 9)
Accepted packet rate average = 0.0203125
	minimum = 0.013 (at node 13)
	maximum = 0.027 (at node 6)
Injected flit rate average = 0.020625
	minimum = 0.014 (at node 7)
	maximum = 0.027 (at node 9)
Accepted flit rate average= 0.0203125
	minimum = 0.013 (at node 13)
	maximum = 0.027 (at node 6)
Injected packet length average = 1
Accepted packet length average = 1
Total in-flight flits = 5 (0 measured)
latency change    = 1
throughput change = 1
Class 0:
Packet latency average = 19.5008
	minimum = 7
	maximum = 39
Network latency average = 19.5008
	minimum = 7
	maximum = 39
Slowest packet = 7251
Flit latency average = 19.5008
	minimum = 7
	maximum = 39
Slowest flit = 7251
Fragmentation average = 0
	minimum = 0
	maximum = 0
Injected packet rate average = 0.0206875
	minimum = 0.0145 (at node 7)
	maximum = 0.03 (at node 2)
Accepted packet rate average = 0.0205313
	minimum = 0.0145 (at node 13)
	maximum = 0.029 (at node 8)
Injected flit rate average = 0.0206875
	minimum = 0.0145 (at node 7)
	maximum = 0.03 (at node 2)
Accepted flit rate average= 0.0205313
	minimum = 0.0145 (at node 13)
	maximum = 0.029 (at node 8)
Injected packet length average = 1
Accepted packet length average = 1
Total in-flight flits = 5 (0 measured)
latency change    = 0.00469368
throughput change = 0.0106545
Class 0:
Packet latency average = 20.3344
	minimum = 7
	maximum = 40
Network latency average = 20.3344
	minimum = 7
	maximum = 40
Slowest packet = 8018
Flit latency average = 20.3344
	minimum = 7
	maximum = 40
Slowest flit = 8018
Fragmentation average = 0
	minimum = 0
	maximum = 0
Injected packet rate average = 0.02
	minimum = 0.011 (at node 10)
	maximum = 0.025 (at node 9)
Accepted packet rate average = 0.0201875
	minimum = 0.011 (at node 10)
	maximum = 0.026 (at node 11)
Injected flit rate average = 0.02
	minimum = 0.011 (at node 10)
	maximum = 0.025 (at node 9)
Accepted flit rate average= 0.0201875
	minimum = 0.011 (at node 10)
	maximum = 0.026 (at node 11)
Injected packet length average = 1
Accepted packet length average = 1
Total in-flight flits = 2 (0 measured)
latency change    = 0.0409949
throughput change = 0.0170279
Warmed up ...Time used is 3000 cycles
Class 0:
Packet latency average = 19.8026
	minimum = 7
	maximum = 38
Network latency average = 19.8026
	minimum = 7
	maximum = 38
Slowest packet = 8253
Flit latency average = 19.8489
	minimum = 7
	maximum = 38
Slowest flit = 8253
Fragmentation average = 0
	minimum = 0
	maximum = 0
Injected packet rate average = 0.0196875
	minimum = 0.014 (at node 1)
	maximum = 0.023 (at node 3)
Accepted packet rate average = 0.0194375
	minimum = 0.014 (at node 4)
	maximum = 0.023 (at node 1)
Injected flit rate average = 0.0196875
	minimum = 0.014 (at node 1)
	maximum = 0.023 (at node 3)
Accepted flit rate average= 0.0194375
	minimum = 0.014 (at node 4)
	maximum = 0.023 (at node 1)
Injected packet length average = 1
Accepted packet length average = 1
Total in-flight flits = 6 (6 measured)
latency change    = 0.0268539
throughput change = 0.0385852
Class 0:
Packet latency average = 20.0045
	minimum = 7
	maximum = 38
Network latency average = 20.0045
	minimum = 7
	maximum = 38
Slowest packet = 8253
Flit latency average = 20.0255
	minimum = 7
	maximum = 38
Slowest flit = 8253
Fragmentation average = 0
	minimum = 0
	maximum = 0
Injected packet rate average = 0.0209063
	minimum = 0.0145 (at node 1)
	maximum = 0.025 (at node 8)
Accepted packet rate average = 0.0208438
	minimum = 0.0145 (at node 4)
	maximum = 0.0245 (at node 2)
Injected flit rate average = 0.0209063
	minimum = 0.0145 (at node 1)
	maximum = 0.025 (at node 8)
Accepted flit rate average= 0.0208438
	minimum = 0.0145 (at node 4)
	maximum = 0.0245 (at node 2)
Injected packet length average = 1
Accepted packet length average = 1
Total in-flight flits = 4 (4 measured)
latency change    = 0.0100938
throughput change = 0.0674663
Class 0:
Packet latency average = 19.9625
	minimum = 7
	maximum = 38
Network latency average = 19.9625
	minimum = 7
	maximum = 38
Slowest packet = 8253
Flit latency average = 19.9767
	minimum = 7
	maximum = 38
Slowest flit = 8253
Fragmentation average = 0
	minimum = 0
	maximum = 0
Injected packet rate average = 0.0206875
	minimum = 0.0146667 (at node 1)
	maximum = 0.0236667 (at node 7)
Accepted packet rate average = 0.0205833
	minimum = 0.0146667 (at node 4)
	maximum = 0.0233333 (at node 7)
Injected flit rate average = 0.0206875
	minimum = 0.0146667 (at node 1)
	maximum = 0.0236667 (at node 7)
Accepted flit rate average= 0.0205833
	minimum = 0.0146667 (at node 4)
	maximum = 0.0233333 (at node 7)
Injected packet length average = 1
Accepted packet length average = 1
Total in-flight flits = 7 (7 measured)
latency change    = 0.00210578
throughput change = 0.0126518
Class 0:
Packet latency average = 19.9169
	minimum = 7
	maximum = 38
Network latency average = 19.9169
	minimum = 7
	maximum = 38
Slowest packet = 8253
Flit latency average = 19.9279
	minimum = 7
	maximum = 38
Slowest flit = 8253
Fragmentation average = 0
	minimum = 0
	maximum = 0
Injected packet rate average = 0.0201875
	minimum = 0.015 (at node 1)
	maximum = 0.023 (at node 8)
Accepted packet rate average = 0.0201406
	minimum = 0.015 (at node 4)
	maximum = 0.0225 (at node 2)
Injected flit rate average = 0.0201875
	minimum = 0.015 (at node 1)
	maximum = 0.023 (at node 8)
Accepted flit rate average= 0.0201406
	minimum = 0.015 (at node 4)
	maximum = 0.0225 (at node 2)
Injected packet length average = 1
Accepted packet length average = 1
Total in-flight flits = 5 (5 measured)
latency change    = 0.00229021
throughput change = 0.0219809
Class 0:
Packet latency average = 19.4737
	minimum = 7
	maximum = 38
Network latency average = 19.4737
	minimum = 7
	maximum = 38
Slowest packet = 8253
Flit latency average = 19.4831
	minimum = 7
	maximum = 38
Slowest flit = 8253
Fragmentation average = 0
	minimum = 0
	maximum = 0
Injected packet rate average = 0.02005
	minimum = 0.018 (at node 1)
	maximum = 0.0222 (at node 6)
Accepted packet rate average = 0.019975
	minimum = 0.018 (at node 4)
	maximum = 0.0218 (at node 9)
Injected flit rate average = 0.02005
	minimum = 0.018 (at node 1)
	maximum = 0.0222 (at node 6)
Accepted flit rate average= 0.019975
	minimum = 0.018 (at node 4)
	maximum = 0.0218 (at node 9)
Injected packet length average = 1
Accepted packet length average = 1
Total in-flight flits = 8 (8 measured)
latency change    = 0.0227577
throughput change = 0.00829161
Draining all recorded packets ...
Draining remaining packets ...
Time taken is 8050 cycles
Class 0:
Packet latency average = 19.5327
	minimum = 7
	maximum = 38
Network latency average = 19.5327
	minimum = 7
	maximum = 38
Slowest packet = 10018
Flit latency average = 19.5327
	minimum = 7
	maximum = 38
Slowest flit = 10018
Fragmentation average = 0
	minimum = 0
	maximum = 0
Injected packet rate average = 0.020375
	minimum = 0.016 (at node 3)
	maximum = 0.025 (at node 12)
Accepted packet rate average = 0.0200625
	minimum = 0.016 (at node 11)
	maximum = 0.024 (at node 3)
Injected flit rate average = 0.020375
	minimum = 0.016 (at node 3)
	maximum = 0.025 (at node 12)
Accepted flit rate average= 0.0200625
	minimum = 0.016 (at node 11)
	maximum = 0.024 (at node 3)
Injected packet length average = 1
Accepted packet length average = 1
Total in-flight flits = 5 (0 measured)
latency change    = 1
throughput change = 1
Class 0:
Packet latency average = 19.7033
	minimum = 7
	maximum = 38
Network latency average = 19.7033
	minimum = 7
	maximum = 38
Slowest packet = 10018
Flit latency average = 19.7033
	minimum = 7
	maximum = 38
Slowest flit = 10018
Fragmentation average = 0
	minimum = 0
	maximum = 0
Injected packet rate average = 0.0197188
	minimum = 0.0155 (at node 3)
	maximum = 0.026 (at node 12)
Accepted packet rate average = 0.0195938
	minimum = 0.0155 (at node 12)
	maximum = 0.0255 (at node 3)
Injected flit rate average = 0.0197188
	minimum = 0.0155 (at node 3)
	maximum = 0.026 (at node 12)
Accepted flit rate average= 0.0195938
	minimum = 0.0155 (at node 12)
	maximum = 0.0255 (at node 3)
Injected packet length average = 1
Accepted packet length average = 1
Total in-flight flits = 4 (0 measured)
latency change    = 0.00866041
throughput change = 0.0239234
Class 0:
Packet latency average = 19.3279
	minimum = 7
	maximum = 39
Network latency average = 19.3279
	minimum = 7
	maximum = 39
Slowest packet = 10625
Flit latency average = 19.3279
	minimum = 7
	maximum = 39
Slowest flit = 10625
Fragmentation average = 0
	minimum = 0
	maximum = 0
Injected packet rate average = 0.019125
	minimum = 0.012 (at node 8)
	maximum = 0.025 (at node 5)
Accepted packet rate average = 0.0190625
	minimum = 0.012 (at node 2)
	maximum = 0.025 (at node 5)
Injected flit rate average = 0.019125
	minimum = 0.012 (at node 8)
	maximum = 0.025 (at node 5)
Accepted flit rate average= 0.0190625
	minimum = 0.012 (at node 2)
	maximum = 0.025 (at node 5)
Injected packet length average = 1
Accepted packet length average = 1
Total in-flight flits = 5 (0 measured)
latency change    = 0.0194269
throughput change = 0.0278689
Warmed up ...Time used is 3000 cycles
Class 0:
Packet latency average = 20.1214
	minimum = 7
	maximum = 38
Network latency average = 20.1214
	minimum = 7
	maximum = 38
Slowest packet = 10921
Flit latency average = 20.1909
	minimum = 7
	maximum = 38
Slowest flit = 10921
Fragmentation average = 0
	minimum = 0
	maximum = 0
Injected packet rate average = 0.022
	minimum = 0.012 (at node 4)
	maximum = 0.03 (at node 13)
Accepted packet rate average = 0.0219375
	minimum = 0.013 (at node 1)
	maximum = 0.031 (at node 7)
Injected flit rate average = 0.022
	minimum = 0.012 (at node 4)
	maximum = 0.03 (at node 13)
Accepted flit rate average= 0.0219375
	minimum = 0.013 (at node 1)
	maximum = 0.031 (at node 7)
Injected packet length average = 1
Accepted packet length average = 1
Total in-flight flits = 6 (6 measured)
latency change    = 0.0394366
throughput change = 0.131054
Class 0:
Packet latency average = 19.8371
	minimum = 7
	maximum = 39
Network latency average = 19.8371
	minimum = 7
	maximum = 39
Slowest packet = 11348
Flit latency average = 19.8761
	minimum = 7
	maximum = 39
Slowest flit = 11348
Fragmentation average = 0
	minimum = 0
	maximum = 0
Injected packet rate average = 0.0207188
	minimum = 0.016 (at node 3)
	maximum = 0.0265 (at node 1)
Accepted packet rate average = 0.0206875
	minimum = 0.016 (at node 12)
	maximum = 0.0265 (at node 7)
Injected flit rate average = 0.0207188
	minimum = 0.016 (at node 3)
	maximum = 0.0265 (at node 1)
Accepted flit rate average= 0.0206875
	minimum = 0.016 (at node 12)
	maximum = 0.0265 (at node 7)
Injected packet length average = 1
Accepted packet length average = 1
Total in-flight flits = 6 (6 measured)
latency change    = 0.0143291
throughput change = 0.060423
Class 0:
Packet latency average = 19.5834
	minimum = 7
	maximum = 39
Network latency average = 19.5834
	minimum = 7
	maximum = 39
Slowest packet = 11348
Flit latency average = 19.6113
	minimum = 7
	maximum = 39
Slowest flit = 11348
Fragmentation average = 0
	minimum = 0
	maximum = 0
Injected packet rate average = 0.0203125
	minimum = 0.015 (at node 3)
	maximum = 0.0246667 (at node 6)
Accepted packet rate average = 0.0202083
	minimum = 0.0143333 (at node 12)
	maximum = 0.0246667 (at node 13)
Injected flit rate average = 0.0203125
	minimum = 0.015 (at node 3)
	maximum = 0.0246667 (at node 6)
Accepted flit rate average= 0.0202083
	minimum = 0.0143333 (at node 12)
	maximum = 0.0246667 (at node 13)
Injected packet length average = 1
Accepted packet length average = 1
Total in-flight flits = 10 (10 measured)
latency change    = 0.0129558
throughput change = 0.0237113
Class 0:
Packet latency average = 19.5497
	minimum = 7
	maximum = 39
Network latency average = 19.5497
	minimum = 7
	maximum = 39
Slowest packet = 11348
Flit latency average = 19.5708
	minimum = 7
	maximum = 39
Slowest flit = 11348
Fragmentation average = 0
	minimum = 0
	maximum = 0
Injected packet rate average = 0.0202188
	minimum = 0.0155 (at node 3)
	maximum = 0.0235 (at node 6)
Accepted packet rate average = 0.0202031
	minimum = 0.01525 (at node 12)
	maximum = 0.0235 (at node 9)
Injected flit rate average = 0.0202188
	minimum = 0.0155 (at node 3)
	maximum = 0.0235 (at node 6)
Accepted flit rate average= 0.0202031
	minimum = 0.01525 (at node 12)
	maximum = 0.0235 (at node 9)
Injected packet length average = 1
Accepted packet length average = 1
Total in-flight flits = 6 (6 measured)
latency change    = 0.00172536
throughput change = 0.000257798
Class 0:
Packet latency average = 19.5589
	minimum = 7
	maximum = 39
Network latency average = 19.5589
	minimum = 7
	maximum = 39
Slowest packet = 11348
Flit latency average = 19.5753
	minimum = 7
	maximum = 39
Slowest flit = 11348
Fragmentation average = 0
	minimum = 0
	maximum = 0
Injected packet rate average = 0.0207125
	minimum = 0.0174 (at node 10)
	maximum = 0.0242 (at node 6)
Accepted packet rate average = 0.0206625
	minimum = 0.0174 (at node 10)
	maximum = 0.0242 (at node 9)
Injected flit rate average = 0.0207125
	minimum = 0.0174 (at node 10)
	maximum = 0.0242 (at node 6)
Accepted flit rate average= 0.0206625
	minimum = 0.0174 (at node 10)
	maximum = 0.0242 (at node 9)
Injected packet length average = 1
Accepted packet length average = 1
Total in-flight flits = 9 (9 measured)
latency change    = 0.00046883
throughput change = 0.0222323
Draining all recorded packets ...
Draining remaining packets ...
Time taken is 8044 cycles
Class 0:
Packet latency average = 19.5696
	minimum = 7
	maximum = 37
Network latency average = 19.5696
	minimum = 7
	maximum = 37
Slowest packet = 12381
Flit latency average = 19.5696
	minimum = 7
	maximum = 37
Slowest flit = 12381
Fragmentation average = 0
	minimum = 0
	maximum = 0
Injected packet rate average = 0.0205
	minimum = 0.015 (at node 15)
	maximum = 0.029 (at node 12)
Accepted packet rate average = 0.01975
	minimum = 0.015 (at node 2)
	maximum = 0.025 (at node 1)
Injected flit rate average = 0.0205
	minimum = 0.015 (at node 15)
	maximum = 0.029 (at node 12)
Accepted flit rate average= 0.01975
	minimum = 0.015 (at node 2)
	maximum = 0.025 (at node 1)
Injected packet length average = 1
Accepted packet length average = 1
Total in-flight flits = 12 (0 measured)
latency change    = 1
throughput change = 1
Class 0:
Packet latency average = 19.9517
	minimum = 7
	maximum = 37
Network latency average = 19.9517
	minimum = 7
	maximum = 37
Slowest packet = 12381
Flit latency average = 19.9517
	minimum = 7
	maximum = 37
Slowest flit = 12381
Fragmentation average = 0
	minimum = 0
	maximum = 0
Injected packet rate average = 0.0203125
	minimum = 0.017 (at node 13)
	maximum = 0.0235 (at node 12)
Accepted packet rate average = 0.0200625
	minimum = 0.0165 (at node 7)
	maximum = 0.0235 (at node 3)
Injected flit rate average = 0.0203125
	minimum = 0.017 (at node 13)
	maximum = 0.0235 (at node 12)
Accepted flit rate average= 0.0200625
	minimum = 0.0165 (at node 7)
	maximum = 0.0235 (at node 3)
Injected packet length average = 1
Accepted packet length average = 1
Total in-flight flits = 8 (0 measured)
latency change    = 0.0191509
throughput change = 0.0155763
Class 0:
Packet latency average = 19.7291
	minimum = 7
	maximum = 38
Network latency average = 19.7291
	minimum = 7
	maximum = 38
Slowest packet = 13145
Flit latency average = 19.7291
	minimum = 7
	maximum = 38
Slowest flit = 13145
Fragmentation average = 0
	minimum = 0
	maximum = 0
Injected packet rate average = 0.018375
	minimum = 0.012 (at node 4)
	maximum = 0.028 (at node 13)
Accepted packet rate average = 0.0186875
	minimum = 0.012 (at node 1)
	maximum = 0.028 (at node 7)
Injected flit rate average = 0.018375
	minimum = 0.012 (at node 4)
	maximum = 0.028 (at node 13)
Accepted flit rate average= 0.0186875
	minimum = 0.012 (at node 1)
	maximum = 0.028 (at node 7)
Injected packet length average = 1
Accepted packet length average = 1
Total in-flight flits = 3 (0 measured)
latency change    = 0.0112837
throughput change = 0.0735786
Warmed up ...Time used is 3000 cycles
Class 0:
Packet latency average = 18.954
	minimum = 7
	maximum = 38
Network latency average = 18.954
	minimum = 7
	maximum = 38
Slowest packet = 13398
Flit latency average = 19.0578
	minimum = 7
	maximum = 38
Slowest flit = 13398
Fragmentation average = 0
	minimum = 0
	maximum = 0
Injected packet rate average = 0.020625
	minimum = 0.014 (at node 7)
	maximum = 0.028 (at node 6)
Accepted packet rate average = 0.0205625
	minimum = 0.014 (at node 13)
	maximum = 0.028 (at node 9)
Injected flit rate average = 0.020625
	minimum = 0.014 (at node 7)
	maximum = 0.028 (at node 6)
Accepted flit rate average= 0.0205625
	minimum = 0.014 (at node 13)
	maximum = 0.028 (at node 9)
Injected packet length average = 1
Accepted packet length average = 1
Total in-flight flits = 4 (4 measured)
latency change    = 0.0408943
throughput change = 0.0911854
Class 0:
Packet latency average = 19.029
	minimum = 7
	maximum = 38
Network latency average = 19.029
	minimum = 7
	maximum = 38
Slowest packet = 13398
Flit latency average = 19.0805
	minimum = 7
	maximum = 38
Slowest flit = 13398
Fragmentation average = 0
	minimum = 0
	maximum = 0
Injected packet rate average = 0.0205625
	minimum = 0.0175 (at node 4)
	maximum = 0.026 (at node 6)
Accepted packet rate average = 0.0205625
	minimum = 0.0175 (at node 1)
	maximum = 0.026 (at node 9)
Injected flit rate average = 0.0205625
	minimum = 0.0175 (at node 4)
	maximum = 0.026 (at node 6)
Accepted flit rate average= 0.0205625
	minimum = 0.0175 (at node 1)
	maximum = 0.026 (at node 9)
Injected packet length average = 1
Accepted packet length average = 1
Total in-flight flits = 3 (3 measured)
latency change    = 0.0039424
throughput change = 0
Class 0:
Packet latency average = 19.2049
	minimum = 7
	maximum = 38
Network latency average = 19.2049
	minimum = 7
	maximum = 38
Slowest packet = 13398
Flit latency average = 19.2388
	minimum = 7
	maximum = 38
Slowest flit = 13398
Fragmentation average = 0
	minimum = 0
	maximum = 0
Injected packet rate average = 0.0205833
	minimum = 0.018 (at node 0)
	maximum = 0.0253333 (at node 10)
Accepted packet rate average = 0.0205
	minimum = 0.0176667 (at node 11)
	maximum = 0.0253333 (at node 10)
Injected flit rate average = 0.0205833
	minimum = 0.018 (at node 0)
	maximum = 0.0253333 (at node 10)
Accepted flit rate average= 0.0205
	minimum = 0.0176667 (at node 11)
	maximum = 0.0253333 (at node 10)
Injected packet length average = 1
Accepted packet length average = 1
Total in-flight flits = 7 (7 measured)
latency change    = 0.00915836
throughput change = 0.00304878
Class 0:
Packet latency average = 19.0738
	minimum = 7
	maximum = 38
Network latency average = 19.0738
	minimum = 7
	maximum = 38
Slowest packet = 13398
Flit latency average = 19.0998
	minimum = 7
	maximum = 38
Slowest flit = 13398
Fragmentation average = 0
	minimum = 0
	maximum = 0
Injected packet rate average = 0.0203594
	minimum = 0.01725 (at node 12)
	maximum = 0.02325 (at node 6)
Accepted packet rate average = 0.0203594
	minimum = 0.01725 (at node 3)
	maximum = 0.02325 (at node 10)
Injected flit rate average = 0.0203594
	minimum = 0.01725 (at node 12)
	maximum = 0.02325 (at node 6)
Accepted flit rate average= 0.0203594
	minimum = 0.01725 (at node 3)
	maximum = 0.02325 (at node 10)
Injected packet length average = 1
Accepted packet length average = 1
Total in-flight flits = 3 (3 measured)
latency change    = 0.0068705
throughput change = 0.00690714
Draining all recorded packets ...
Draining remaining packets ...
Time taken is 7036 cycles
Class 0:
Packet latency average = 18.3562
	minimum = 7
	maximum = 38
Network latency average = 18.3562
	minimum = 7
	maximum = 38
Slowest packet = 14842
Flit latency average = 18.3562
	minimum = 7
	maximum = 38
Slowest flit = 14842
Fragmentation average = 0
	minimum = 0
	maximum = 0
Injected packet rate average = 0.019625
	minimum = 0.013 (at node 11)
	maximum = 0.029 (at node 1)
Accepted packet rate average = 0.019125
	minimum = 0.013 (at node 12)
	maximum = 0.029 (at node 4)
Injected flit rate average = 0.019625
	minimum = 0.013 (at node 11)
	maximum = 0.029 (at node 1)
Accepted flit rate average= 0.019125
	minimum = 0.013 (at node 12)
	maximum = 0.029 (at node 4)
Injected packet length average = 1
Accepted packet length average = 1
Total in-flight flits = 8 (0 measured)
latency change    = 1
throughput change = 1
Class 0:
Packet latency average = 19.6422
	minimum = 7
	maximum = 38
Network latency average = 19.6422
	minimum = 7
	maximum = 38
Slowest packet = 14842
Flit latency average = 19.6422
	minimum = 7
	maximum = 38
Slowest flit = 14842
Fragmentation average = 0
	minimum = 0
	maximum = 0
Injected packet rate average = 0.0198438
	minimum = 0.014 (at node 11)
	maximum = 0.0265 (at node 1)
Accepted packet rate average = 0.0195625
	minimum = 0.014 (at node 14)
	maximum = 0.0265 (at node 4)
Injected flit rate average = 0.0198438
	minimum = 0.014 (at node 11)
	maximum = 0.0265 (at node 1)
Accepted flit rate average= 0.0195625
	minimum = 0.014 (at node 14)
	maximum = 0.0265 (at node 4)
Injected packet length average = 1
Accepted packet length average = 1
Total in-flight flits = 9 (0 measured)
latency change    = 0.0654695
throughput change = 0.0223642
Class 0:
Packet latency average = 19.1105
	minimum = 7
	maximum = 38
Network latency average = 19.1105
	minimum = 7
	maximum = 38
Slowest packet = 15263
Flit latency average = 19.1105
	minimum = 7
	maximum = 38
Slowest flit = 15263
Fragmentation average = 0
	minimum = 0
	maximum = 0
Injected packet rate average = 0.022125
	minimum = 0.008 (at node 4)
	maximum = 0.032 (at node 11)
Accepted packet rate average = 0.0220625
	minimum = 0.008 (at node 1)
	maximum = 0.03 (at node 10)
Injected flit rate average = 0.022125
	minimum = 0.008 (at node 4)
	maximum = 0.032 (at node 11)
Accepted flit rate average= 0.0220625
	minimum = 0.008 (at node 1)
	maximum = 0.03 (at node 10)
Injected packet length average = 1
Accepted packet length average = 1
Total in-flight flits = 10 (0 measured)
latency change    = 0.027822
throughput change = 0.113314
Warmed up ...Time used is 3000 cycles
Class 0:
Packet latency average = 19.2594
	minimum = 7
	maximum = 37
Network latency average = 19.2594
	minimum = 7
	maximum = 37
Slowest packet = 15623
Flit latency average = 19.3727
	minimum = 7
	maximum = 37
Slowest flit = 15613
Fragmentation average = 0
	minimum = 0
	maximum = 0
Injected packet rate average = 0.0203125
	minimum = 0.013 (at node 10)
	maximum = 0.027 (at node 5)
Accepted packet rate average = 0.020625
	minimum = 0.013 (at node 10)
	maximum = 0.027 (at node 5)
Injected flit rate average = 0.0203125
	minimum = 0.013 (at node 10)
	maximum = 0.027 (at node 5)
Accepted flit rate average= 0.020625
	minimum = 0.013 (at node 10)
	maximum = 0.027 (at node 5)
Injected packet length average = 1
Accepted packet length average = 1
Total in-flight flits = 5 (5 measured)
latency change    = 0.00773096
throughput change = 0.069697
Class 0:
Packet latency average = 19.4106
	minimum = 7
	maximum = 38
Network latency average = 19.4106
	minimum = 7
	maximum = 38
Slowest packet = 16182
Flit latency average = 19.4675
	minimum = 7
	maximum = 38
Slowest flit = 16182
Fragmentation average = 0
	minimum = 0
	maximum = 0
Injected packet rate average = 0.0196563
	minimum = 0.015 (at node 10)
	maximum = 0.0255 (at node 13)
Accepted packet rate average = 0.0197188
	minimum = 0.014 (at node 10)
	maximum = 0.026 (at node 7)
Injected flit rate average = 0.0196563
	minimum = 0.015 (at node 10)
	maximum = 0.0255 (at node 13)
Accepted flit rate average= 0.0197188
	minimum = 0.014 (at node 10)
	maximum = 0.026 (at node 7)
Injected packet length average = 1
Accepted packet length average = 1
Total in-flight flits = 8 (8 measured)
latency change    = 0.00779228
throughput change = 0.0459588
Class 0:
Packet latency average = 19.6017
	minimum = 7
	maximum = 38
Network latency average = 19.6017
	minimum = 7
	maximum = 38
Slowest packet = 16182
Flit latency average = 19.6364
	minimum = 7
	maximum = 38
Slowest flit = 16182
Fragmentation average = 0
	minimum = 0
	maximum = 0
Injected packet rate average = 0.0202917
	minimum = 0.0163333 (at node 11)
	maximum = 0.026 (at node 13)
Accepted packet rate average = 0.0203958
	minimum = 0.017 (at node 10)
	maximum = 0.0263333 (at node 7)
Injected flit rate average = 0.0202917
	minimum = 0.0163333 (at node 11)
	maximum = 0.026 (at node 13)
Accepted flit rate average= 0.0203958
	minimum = 0.017 (at node 10)
	maximum = 0.0263333 (at node 7)
Injected packet length average = 1
Accepted packet length average = 1
Total in-flight flits = 5 (5 measured)
latency change    = 0.00974526
throughput change = 0.0331971
Class 0:
Packet latency average = 19.524
	minimum = 7
	maximum = 38
Network latency average = 19.524
	minimum = 7
	maximum = 38
Slowest packet = 16182
Flit latency average = 19.5508
	minimum = 7
	maximum = 38
Slowest flit = 16182
Fragmentation average = 0
	minimum = 0
	maximum = 0
Injected packet rate average = 0.0202656
	minimum = 0.01725 (at node 11)
	maximum = 0.02575 (at node 13)
Accepted packet rate average = 0.0203125
	minimum = 0.0175 (at node 14)
	maximum = 0.026 (at node 7)
Injected flit rate average = 0.0202656
	minimum = 0.01725 (at node 11)
	maximum = 0.02575 (at node 13)
Accepted flit rate average= 0.0203125
	minimum = 0.0175 (at node 14)
	maximum = 0.026 (at node 7)
Injected packet length average = 1
Accepted packet length average = 1
Total in-flight flits = 7 (7 measured)
latency change    = 0.00397562
throughput change = 0.00410256
Draining all recorded packets ...
Draining remaining packets ...
Time taken is 7061 cycles
Class 0:
Packet latency average = 18.9679
	minimum = 7
	maximum = 38
Network latency average = 18.9679
	minimum = 7
	maximum = 38
Slowest packet = 17135
Flit latency average = 18.9679
	minimum = 7
	maximum = 38
Slowest flit = 17135
Fragmentation average = 0
	minimum = 0
	maximum = 0
Injected packet rate average = 0.01975
	minimum = 0.008 (at node 4)
	maximum = 0.03 (at node 0)
Accepted packet rate average = 0.0195
	minimum = 0.008 (at node 1)
	maximum = 0.03 (at node 0)
Injected flit rate average = 0.01975
	minimum = 0.008 (at node 4)
	maximum = 0.03 (at node 0)
Accepted flit rate average= 0.0195
	minimum = 0.008 (at node 1)
	maximum = 0.03 (at node 0)
Injected packet length average = 1
Accepted packet length average = 1
Total in-flight flits = 4 (0 measured)
latency change    = 1
throughput change = 1
Class 0:
Packet latency average = 18.9312
	minimum = 7
	maximum = 38
Network latency average = 18.9312
	minimum = 7
	maximum = 38
Slowest packet = 17135
Flit latency average = 18.9312
	minimum = 7
	maximum = 38
Slowest flit = 17135
Fragmentation average = 0
	minimum = 0
	maximum = 0
Injected packet rate average = 0.02025
	minimum = 0.016 (at node 4)
	maximum = 0.026 (at node 0)
Accepted packet rate average = 0.02
	minimum = 0.016 (at node 1)
	maximum = 0.026 (at node 0)
Injected flit rate average = 0.02025
	minimum = 0.016 (at node 4)
	maximum = 0.026 (at node 0)
Accepted flit rate average= 0.02
	minimum = 0.016 (at node 1)
	maximum = 0.026 (at node 0)
Injected packet length average = 1
Accepted packet length average = 1
Total in-flight flits = 8 (0 measured)
latency change    = 0.00193853
throughput change = 0.025
Class 0:
Packet latency average = 19.7083
	minimum = 7
	maximum = 38
Network latency average = 19.7083
	minimum = 7
	maximum = 38
Slowest packet = 17676
Flit latency average = 19.7083
	minimum = 7
	maximum = 38
Slowest flit = 17676
Fragmentation average = 0
	minimum = 0
	maximum = 0
Injected packet rate average = 0.01925
	minimum = 0.013 (at node 1)
	maximum = 0.026 (at node 9)
Accepted packet rate average = 0.0195
	minimum = 0.012 (at node 4)
	maximum = 0.026 (at node 2)
Injected flit rate average = 0.01925
	minimum = 0.013 (at node 1)
	maximum = 0.026 (at node 9)
Accepted flit rate average= 0.0195
	minimum = 0.012 (at node 4)
	maximum = 0.026 (at node 2)
Injected packet length average = 1
Accepted packet length average = 1
Total in-flight flits = 4 (0 measured)
latency change    = 0.0394292
throughput change = 0.025641
Warmed up ...Time used is 3000 cycles
Class 0:
Packet latency average = 20.5333
	minimum = 7
	maximum = 38
Network latency average = 20.5333
	minimum = 7
	maximum = 38
Slowest packet = 17904
Flit latency average = 20.521
	minimum = 7
	maximum = 38
Slowest flit = 17904
Fragmentation average = 0
	minimum = 0
	maximum = 0
Injected packet rate average = 0.0208125
	minimum = 0.012 (at node 10)
	maximum = 0.03 (at node 2)
Accepted packet rate average = 0.020875
	minimum = 0.012 (at node 10)
	maximum = 0.031 (at node 8)
Injected flit rate average = 0.0208125
	minimum = 0.012 (at node 10)
	maximum = 0.03 (at node 2)
Accepted flit rate average= 0.020875
	minimum = 0.012 (at node 10)
	maximum = 0.031 (at node 8)
Injected packet length average = 1
Accepted packet length average = 1
Total in-flight flits = 3 (3 measured)
latency change    = 0.0401786
throughput change = 0.0658683
Class 0:
Packet latency average = 19.9605
	minimum = 7
	maximum = 38
Network latency average = 19.9605
	minimum = 7
	maximum = 38
Slowest packet = 17904
Flit latency average = 19.9575
	minimum = 7
	maximum = 38
Slowest flit = 17904
Fragmentation average = 0
	minimum = 0
	maximum = 0
Injected packet rate average = 0.0191875
	minimum = 0.014 (at node 10)
	maximum = 0.024 (at node 2)
Accepted packet rate average = 0.019125
	minimum = 0.014 (at node 10)
	maximum = 0.0245 (at node 8)
Injected flit rate average = 0.0191875
	minimum = 0.014 (at node 10)
	maximum = 0.024 (at node 2)
Accepted flit rate average= 0.019125
	minimum = 0.014 (at node 10)
	maximum = 0.0245 (at node 8)
Injected packet length average = 1
Accepted packet length average = 1
Total in-flight flits = 6 (6 measured)
latency change    = 0.028697
throughput change = 0.0915033
Class 0:
Packet latency average = 19.8568
	minimum = 7
	maximum = 38
Network latency average = 19.8568
	minimum = 7
	maximum = 38
Slowest packet = 17904
Flit latency average = 19.8552
	minimum = 7
	maximum = 38
Slowest flit = 17904
Fragmentation average = 0
	minimum = 0
	maximum = 0
Injected packet rate average = 0.01875
	minimum = 0.015 (at node 6)
	maximum = 0.0223333 (at node 3)
Accepted packet rate average = 0.0187083
	minimum = 0.015 (at node 9)
	maximum = 0.0223333 (at node 5)
Injected flit rate average = 0.01875
	minimum = 0.015 (at node 6)
	maximum = 0.0223333 (at node 3)
Accepted flit rate average= 0.0187083
	minimum = 0.015 (at node 9)
	maximum = 0.0223333 (at node 5)
Injected packet length average = 1
Accepted packet length average = 1
Total in-flight flits = 6 (6 measured)
latency change    = 0.00522254
throughput change = 0.0222717
Class 0:
Packet latency average = 19.8273
	minimum = 7
	maximum = 38
Network latency average = 19.8273
	minimum = 7
	maximum = 38
Slowest packet = 17904
Flit latency average = 19.8262
	minimum = 7
	maximum = 38
Slowest flit = 17904
Fragmentation average = 0
	minimum = 0
	maximum = 0
Injected packet rate average = 0.0190781
	minimum = 0.01475 (at node 15)
	maximum = 0.02275 (at node 5)
Accepted packet rate average = 0.0190625
	minimum = 0.01475 (at node 15)
	maximum = 0.02275 (at node 5)
Injected flit rate average = 0.0190781
	minimum = 0.01475 (at node 15)
	maximum = 0.02275 (at node 5)
Accepted flit rate average= 0.0190625
	minimum = 0.01475 (at node 15)
	maximum = 0.02275 (at node 5)
Injected packet length average = 1
Accepted packet length average = 1
Total in-flight flits = 5 (5 measured)
latency change    = 0.00148889
throughput change = 0.0185792
Class 0:
Packet latency average = 19.7145
	minimum = 7
	maximum = 38
Network latency average = 19.7145
	minimum = 7
	maximum = 38
Slowest packet = 17904
Flit latency average = 19.7139
	minimum = 7
	maximum = 38
Slowest flit = 17904
Fragmentation average = 0
	minimum = 0
	maximum = 0
Injected packet rate average = 0.0194625
	minimum = 0.0142 (at node 15)
	maximum = 0.022 (at node 2)
Accepted packet rate average = 0.0194875
	minimum = 0.0142 (at node 15)
	maximum = 0.0222 (at node 8)
Injected flit rate average = 0.0194625
	minimum = 0.0142 (at node 15)
	maximum = 0.022 (at node 2)
Accepted flit rate average= 0.0194875
	minimum = 0.0142 (at node 15)
	maximum = 0.0222 (at node 8)
Injected packet length average = 1
Accepted packet length average = 1
Total in-flight flits = 2 (2 measured)
latency change    = 0.00572337
throughput change = 0.0218089
Draining all recorded packets ...
Draining remaining packets ...
Time taken is 8007 cycles
Class 0:
Packet latency average = 19.7028
	minimum = 7
	maximum = 38
Network latency average = 19.7028
	minimum = 7
	maximum = 38
Slowest packet = 19448
Flit latency average = 19.7028
	minimum = 7
	maximum = 38
Slowest flit = 19448
Fragmentation average = 0
	minimum = 0
	maximum = 0
Injected packet rate average = 0.0183125
	minimum = 0.011 (at node 6)
	maximum = 0.026 (at node 13)
Accepted packet rate average = 0.017875
	minimum = 0.011 (at node 9)
	maximum = 0.025 (at node 7)
Injected flit rate average = 0.0183125
	minimum = 0.011 (at node 6)
	maximum = 0.026 (at node 13)
Accepted flit rate average= 0.017875
	minimum = 0.011 (at node 9)
	maximum = 0.025 (at node 7)
Injected packet length average = 1
Accepted packet length average = 1
Total in-flight flits = 7 (0 measured)
latency change    = 1
throughput change = 1
Class 0:
Packet latency average = 19.6623
	minimum = 7
	maximum = 38
Network latency average = 19.6623
	minimum = 7
	maximum = 38
Slowest packet = 19448
Flit latency average = 19.6623
	minimum = 7
	maximum = 38
Slowest flit = 19448
Fragmentation average = 0
	minimum = 0
	maximum = 0
Injected packet rate average = 0.0192187
	minimum = 0.014 (at node 8)
	maximum = 0.0265 (at node 0)
Accepted packet rate average = 0.0189687
	minimum = 0.0135 (at node 2)
	maximum = 0.0265 (at node 0)
Injected flit rate average = 0.0192187
	minimum = 0.014 (at node 8)
	maximum = 0.0265 (at node 0)
Accepted flit rate average= 0.0189687
	minimum = 0.0135 (at node 2)
	maximum = 0.0265 (at node 0)
Injected packet length average = 1
Accepted packet length average = 1
Total in-flight flits = 8 (0 measured)
latency change    = 0.00206099
throughput change = 0.0576606
Class 0:
Packet latency average = 18.8924
	minimum = 7
	maximum = 38
Network latency average = 18.8924
	minimum = 7
	maximum = 38
Slowest packet = 20042
Flit latency average = 18.8924
	minimum = 7
	maximum = 38
Slowest flit = 20042
Fragmentation average = 0
	minimum = 0
	maximum = 0
Injected packet rate average = 0.0214375
	minimum = 0.011 (at node 2)
	maximum = 0.035 (at node 14)
Accepted packet rate average = 0.0215
	minimum = 0.012 (at node 8)
	maximum = 0.034 (at node 11)
Injected flit rate average = 0.0214375
	minimum = 0.011 (at node 2)
	maximum = 0.035 (at node 14)
Accepted flit rate average= 0.0215
	minimum = 0.012 (at node 8)
	maximum = 0.034 (at node 11)
Injected packet length average = 1
Accepted packet length average = 1
Total in-flight flits = 7 (0 measured)
latency change    = 0.0407481
throughput change = 0.117733
Warmed up ...Time used is 3000 cycles
Class 0:
Packet latency average = 18.8276
	minimum = 7
	maximum = 37
Network latency average = 18.8276
	minimum = 7
	maximum = 37
Slowest packet = 20394
Flit latency average = 19.0539
	minimum = 7
	maximum = 37
Slowest flit = 20379
Fragmentation average = 0
	minimum = 0
	maximum = 0
Injected packet rate average = 0.0186875
	minimum = 0.01 (at node 14)
	maximum = 0.03 (at node 10)
Accepted packet rate average = 0.0185625
	minimum = 0.011 (at node 11)
	maximum = 0.028 (at node 10)
Injected flit rate average = 0.0186875
	minimum = 0.01 (at node 14)
	maximum = 0.03 (at node 10)
Accepted flit rate average= 0.0185625
	minimum = 0.011 (at node 11)
	maximum = 0.028 (at node 10)
Injected packet length average = 1
Accepted packet length average = 1
Total in-flight flits = 9 (9 measured)
latency change    = 0.00344471
throughput change = 0.158249
Class 0:
Packet latency average = 19.293
	minimum = 7
	maximum = 46
Network latency average = 19.293
	minimum = 7
	maximum = 46
Slowest packet = 20773
Flit latency average = 19.3964
	minimum = 7
	maximum = 46
Slowest flit = 20773
Fragmentation average = 0
	minimum = 0
	maximum = 0
Injected packet rate average = 0.0191562
	minimum = 0.0155 (at node 15)
	maximum = 0.0235 (at node 1)
Accepted packet rate average = 0.0193125
	minimum = 0.0155 (at node 15)
	maximum = 0.0235 (at node 4)
Injected flit rate average = 0.0191562
	minimum = 0.0155 (at node 15)
	maximum = 0.0235 (at node 1)
Accepted flit rate average= 0.0193125
	minimum = 0.0155 (at node 15)
	maximum = 0.0235 (at node 4)
Injected packet length average = 1
Accepted packet length average = 1
Total in-flight flits = 2 (2 measured)
latency change    = 0.0241215
throughput change = 0.038835
Class 0:
Packet latency average = 19.2276
	minimum = 7
	maximum = 46
Network latency average = 19.2276
	minimum = 7
	maximum = 46
Slowest packet = 20773
Flit latency average = 19.2966
	minimum = 7
	maximum = 46
Slowest flit = 20773
Fragmentation average = 0
	minimum = 0
	maximum = 0
Injected packet rate average = 0.0194375
	minimum = 0.0166667 (at node 15)
	maximum = 0.0236667 (at node 0)
Accepted packet rate average = 0.0194583
	minimum = 0.0166667 (at node 15)
	maximum = 0.0236667 (at node 0)
Injected flit rate average = 0.0194375
	minimum = 0.0166667 (at node 15)
	maximum = 0.0236667 (at node 0)
Accepted flit rate average= 0.0194583
	minimum = 0.0166667 (at node 15)
	maximum = 0.0236667 (at node 0)
Injected packet length average = 1
Accepted packet length average = 1
Total in-flight flits = 6 (6 measured)
latency change    = 0.00339857
throughput change = 0.00749465
Class 0:
Packet latency average = 19.5736
	minimum = 7
	maximum = 46
Network latency average = 19.5736
	minimum = 7
	maximum = 46
Slowest packet = 20773
Flit latency average = 19.6235
	minimum = 7
	maximum = 46
Slowest flit = 20773
Fragmentation average = 0
	minimum = 0
	maximum = 0
Injected packet rate average = 0.0193906
	minimum = 0.01575 (at node 15)
	maximum = 0.0225 (at node 1)
Accepted packet rate average = 0.0194219
	minimum = 0.01575 (at node 15)
	maximum = 0.0225 (at node 4)
Injected flit rate average = 0.0193906
	minimum = 0.01575 (at node 15)
	maximum = 0.0225 (at node 1)
Accepted flit rate average= 0.0194219
	minimum = 0.01575 (at node 15)
	maximum = 0.0225 (at node 4)
Injected packet length average = 1
Accepted packet length average = 1
Total in-flight flits = 5 (5 measured)
latency change    = 0.0176773
throughput change = 0.00187718
Draining all recorded packets ...
Draining remaining packets ...
Time taken is 7065 cycles
Class 0:
Packet latency average = 18.934
	minimum = 7
	maximum = 38
Network latency average = 18.934
	minimum = 7
	maximum = 38
Slowest packet = 21805
Flit latency average = 18.934
	minimum = 7
	maximum = 38
Slowest flit = 21805
Fragmentation average = 0
	minimum = 0
	maximum = 0
Injected packet rate average = 0.0203125
	minimum = 0.014 (at node 0)
	maximum = 0.027 (at node 10)
Accepted packet rate average = 0.019875
	minimum = 0.014 (at node 0)
	maximum = 0.027 (at node 10)
Injected flit rate average = 0.0203125
	minimum = 0.014 (at node 0)
	maximum = 0.027 (at node 10)
Accepted flit rate average= 0.019875
	minimum = 0.014 (at node 0)
	maximum = 0.027 (at node 10)
Injected packet length average = 1
Accepted packet length average = 1
Total in-flight flits = 7 (0 measured)
latency change    = 1
throughput change = 1
Class 0:
Packet latency average = 19.483
	minimum = 7
	maximum = 38
Network latency average = 19.483
	minimum = 7
	maximum = 38
Slowest packet = 21805
Flit latency average = 19.483
	minimum = 7
	maximum = 38
Slowest flit = 21805
Fragmentation average = 0
	minimum = 0
	maximum = 0
Injected packet rate average = 0.0204063
	minimum = 0.0155 (at node 6)
	maximum = 0.025 (at node 14)
Accepted packet rate average = 0.02025
	minimum = 0.0155 (at node 1)
	maximum = 0.0245 (at node 4)
Injected flit rate average = 0.0204063
	minimum = 0.0155 (at node 6)
	maximum = 0.025 (at node 14)
Accepted flit rate average= 0.02025
	minimum = 0.0155 (at node 1)
	maximum = 0.0245 (at node 4)
Injected packet length average = 1
Accepted packet length average = 1
Total in-flight flits = 5 (0 measured)
latency change    = 0.0281816
throughput change = 0.0185185
Class 0:
Packet latency average = 18.7932
	minimum = 7
	maximum = 37
Network latency average = 18.7932
	minimum = 7
	maximum = 37
Slowest packet = 22296
Flit latency average = 18.7932
	minimum = 7
	maximum = 37
Slowest flit = 22296
Fragmentation average = 0
	minimum = 0
	maximum = 0
Injected packet rate average = 0.0204375
	minimum = 0.011 (at node 5)
	maximum = 0.026 (at node 0)
Accepted packet rate average = 0.02025
	minimum = 0.011 (at node 5)
	maximum = 0.026 (at node 0)
Injected flit rate average = 0.0204375
	minimum = 0.011 (at node 5)
	maximum = 0.026 (at node 0)
Accepted flit rate average= 0.02025
	minimum = 0.011 (at node 5)
	maximum = 0.026 (at node 0)
Injected packet length average = 1
Accepted packet length average = 1
Total in-flight flits = 8 (0 measured)
latency change    = 0.0367055
throughput change = 0
Warmed up ...Time used is 3000 cycles
Class 0:
Packet latency average = 19.6207
	minimum = 7
	maximum = 38
Network latency average = 19.6207
	minimum = 7
	maximum = 38
Slowest packet = 22704
Flit latency average = 19.7431
	minimum = 7
	maximum = 38
Slowest flit = 22623
Fragmentation average = 0
	minimum = 0
	maximum = 0
Injected packet rate average = 0.0201875
	minimum = 0.012 (at node 9)
	maximum = 0.028 (at node 8)
Accepted packet rate average = 0.0204375
	minimum = 0.012 (at node 6)
	maximum = 0.028 (at node 2)
Injected flit rate average = 0.0201875
	minimum = 0.012 (at node 9)
	maximum = 0.028 (at node 8)
Accepted flit rate average= 0.0204375
	minimum = 0.012 (at node 6)
	maximum = 0.028 (at node 2)
Injected packet length average = 1
Accepted packet length average = 1
Total in-flight flits = 4 (4 measured)
latency change    = 0.0421738
throughput change = 0.00917431
Class 0:
Packet latency average = 19.7977
	minimum = 7
	maximum = 38
Network latency average = 19.7977
	minimum = 7
	maximum = 38
Slowest packet = 22704
Flit latency average = 19.8604
	minimum = 7
	maximum = 38
Slowest flit = 22623
Fragmentation average = 0
	minimum = 0
	maximum = 0
Injected packet rate average = 0.0191562
	minimum = 0.012 (at node 9)
	maximum = 0.0235 (at node 6)
Accepted packet rate average = 0.01925
	minimum = 0.012 (at node 6)
	maximum = 0.0245 (at node 9)
Injected flit rate average = 0.0191562
	minimum = 0.012 (at node 9)
	maximum = 0.0235 (at node 6)
Accepted flit rate average= 0.01925
	minimum = 0.012 (at node 6)
	maximum = 0.0245 (at node 9)
Injected packet length average = 1
Accepted packet length average = 1
Total in-flight flits = 5 (5 measured)
latency change    = 0.00894082
throughput change = 0.0616883
Class 0:
Packet latency average = 19.7866
	minimum = 7
	maximum = 38
Network latency average = 19.7866
	minimum = 7
	maximum = 38
Slowest packet = 22704
Flit latency average = 19.8268
	minimum = 7
	maximum = 38
Slowest flit = 22623
Fragmentation average = 0
	minimum = 0
	maximum = 0
Injected packet rate average = 0.0200833
	minimum = 0.0156667 (at node 5)
	maximum = 0.0246667 (at node 8)
Accepted packet rate average = 0.0200833
	minimum = 0.0156667 (at node 5)
	maximum = 0.0246667 (at node 2)
Injected flit rate average = 0.0200833
	minimum = 0.0156667 (at node 5)
	maximum = 0.0246667 (at node 8)
Accepted flit rate average= 0.0200833
	minimum = 0.0156667 (at node 5)
	maximum = 0.0246667 (at node 2)
Injected packet length average = 1
Accepted packet length average = 1
Total in-flight flits = 8 (8 measured)
latency change    = 0.000560303
throughput change = 0.0414938
Class 0:
Packet latency average = 19.6528
	minimum = 7
	maximum = 38
Network latency average = 19.6528
	minimum = 7
	maximum = 38
Slowest packet = 22704
Flit latency average = 19.6832
	minimum = 7
	maximum = 38
Slowest flit = 22623
Fragmentation average = 0
	minimum = 0
	maximum = 0
Injected packet rate average = 0.0203594
	minimum = 0.016 (at node 5)
	maximum = 0.0245 (at node 8)
Accepted packet rate average = 0.0204219
	minimum = 0.016 (at node 5)
	maximum = 0.0245 (at node 2)
Injected flit rate average = 0.0203594
	minimum = 0.016 (at node 5)
	maximum = 0.0245 (at node 8)
Accepted flit rate average= 0.0204219
	minimum = 0.016 (at node 5)
	maximum = 0.0245 (at node 2)
Injected packet length average = 1
Accepted packet length average = 1
Total in-flight flits = 4 (4 measured)
latency change    = 0.00680824
throughput change = 0.0165774
Class 0:
Packet latency average = 19.8318
	minimum = 7
	maximum = 39
Network latency average = 19.8318
	minimum = 7
	maximum = 39
Slowest packet = 24038
Flit latency average = 19.8551
	minimum = 7
	maximum = 39
Slowest flit = 24038
Fragmentation average = 0
	minimum = 0
	maximum = 0
Injected packet rate average = 0.020525
	minimum = 0.0156 (at node 5)
	maximum = 0.025 (at node 8)
Accepted packet rate average = 0.0205375
	minimum = 0.0156 (at node 5)
	maximum = 0.025 (at node 2)
Injected flit rate average = 0.020525
	minimum = 0.0156 (at node 5)
	maximum = 0.025 (at node 8)
Accepted flit rate average= 0.0205375
	minimum = 0.0156 (at node 5)
	maximum = 0.025 (at node 2)
Injected packet length average = 1
Accepted packet length average = 1
Total in-flight flits = 7 (7 measured)
latency change    = 0.00902562
throughput change = 0.00562995
Draining all recorded packets ...
Draining remaining packets ...
Time taken is 8055 cycles
Class 0:
Packet latency average = 18.8351
	minimum = 7
	maximum = 38
Network latency average = 18.8351
	minimum = 7
	maximum = 38
Slowest packet = 24325
Flit latency average = 18.8351
	minimum = 7
	maximum = 38
Slowest flit = 24325
Fragmentation average = 0
	minimum = 0
	maximum = 0
Injected packet rate average = 0.01875
	minimum = 0.012 (at node 7)
	maximum = 0.027 (at node 14)
Accepted packet rate average = 0.0181875
	minimum = 0.011 (at node 13)
	maximum = 0.026 (at node 11)
Injected flit rate average = 0.01875
	minimum = 0.012 (at node 7)
	maximum = 0.027 (at node 14)
Accepted flit rate average= 0.0181875
	minimum = 0.011 (at node 13)
	maximum = 0.026 (at node 11)
Injected packet length average = 1
Accepted packet length average = 1
Total in-flight flits = 9 (0 measured)
latency change    = 1
throughput change = 1
Class 0:
Packet latency average = 19.1494
	minimum = 7
	maximum = 40
Network latency average = 19.1494
	minimum = 7
	maximum = 40
Slowest packet = 24759
Flit latency average = 19.1494
	minimum = 7
	maximum = 40
Slowest flit = 24759
Fragmentation average = 0
	minimum = 0
	maximum = 0
Injected packet rate average = 0.0195625
	minimum = 0.014 (at node 7)
	maximum = 0.026 (at node 14)
Accepted packet rate average = 0.01925
	minimum = 0.014 (at node 13)
	maximum = 0.0255 (at node 11)
Injected flit rate average = 0.0195625
	minimum = 0.014 (at node 7)
	maximum = 0.026 (at node 14)
Accepted flit rate average= 0.01925
	minimum = 0.014 (at node 13)
	maximum = 0.0255 (at node 11)
Injected packet length average = 1
Accepted packet length average = 1
Total in-flight flits = 10 (0 measured)
latency change    = 0.016413
throughput change = 0.0551948
Class 0:
Packet latency average = 20.0447
	minimum = 7
	maximum = 38
Network latency average = 20.0447
	minimum = 7
	maximum = 38
Slowest packet = 25107
Flit latency average = 20.0447
	minimum = 7
	maximum = 38
Slowest flit = 25107
Fragmentation average = 0
	minimum = 0
	maximum = 0
Injected packet rate average = 0.01925
	minimum = 0.015 (at node 5)
	maximum = 0.025 (at node 2)
Accepted packet rate average = 0.0195625
	minimum = 0.016 (at node 0)
	maximum = 0.028 (at node 8)
Injected flit rate average = 0.01925
	minimum = 0.015 (at node 5)
	maximum = 0.025 (at node 2)
Accepted flit rate average= 0.0195625
	minimum = 0.016 (at node 0)
	maximum = 0.028 (at node 8)
Injected packet length average = 1
Accepted packet length average = 1
Total in-flight flits = 5 (0 measured)
latency change    = 0.044669
throughput change = 0.0159744
Warmed up ...Time used is 3000 cycles
Class 0:
Packet latency average = 18.331
	minimum = 7
	maximum = 38
Network latency average = 18.331
	minimum = 7
	maximum = 38
Slowest packet = 25484
Flit latency average = 18.3767
	minimum = 7
	maximum = 38
Slowest flit = 25484
Fragmentation average = 0
	minimum = 0
	maximum = 0
Injected packet rate average = 0.0183125
	minimum = 0.01 (at node 12)
	maximum = 0.028 (at node 1)
Accepted packet rate average = 0.01825
	minimum = 0.009 (at node 3)
	maximum = 0.029 (at node 4)
Injected flit rate average = 0.0183125
	minimum = 0.01 (at node 12)
	maximum = 0.028 (at node 1)
Accepted flit rate average= 0.01825
	minimum = 0.009 (at node 3)
	maximum = 0.029 (at node 4)
Injected packet length average = 1
Accepted packet length average = 1
Total in-flight flits = 6 (6 measured)
latency change    = 0.0934874
throughput change = 0.0719178
Class 0:
Packet latency average = 18.8404
	minimum = 7
	maximum = 38
Network latency average = 18.8404
	minimum = 7
	maximum = 38
Slowest packet = 25484
Flit latency average = 18.8574
	minimum = 7
	maximum = 38
Slowest flit = 25484
Fragmentation average = 0
	minimum = 0
	maximum = 0
Injected packet rate average = 0.0199063
	minimum = 0.015 (at node 4)
	maximum = 0.0265 (at node 1)
Accepted packet rate average = 0.0199375
	minimum = 0.015 (at node 1)
	maximum = 0.028 (at node 4)
Injected flit rate average = 0.0199063
	minimum = 0.015 (at node 4)
	maximum = 0.0265 (at node 1)
Accepted flit rate average= 0.0199375
	minimum = 0.015 (at node 1)
	maximum = 0.028 (at node 4)
Injected packet length average = 1
Accepted packet length average = 1
Total in-flight flits = 4 (4 measured)
latency change    = 0.0270393
throughput change = 0.0846395
Class 0:
Packet latency average = 19.2476
	minimum = 7
	maximum = 38
Network latency average = 19.2476
	minimum = 7
	maximum = 38
Slowest packet = 25484
Flit latency average = 19.2568
	minimum = 7
	maximum = 38
Slowest flit = 25484
Fragmentation average = 0
	minimum = 0
	maximum = 0
Injected packet rate average = 0.0198542
	minimum = 0.0163333 (at node 4)
	maximum = 0.024 (at node 10)
Accepted packet rate average = 0.019875
	minimum = 0.0163333 (at node 1)
	maximum = 0.024 (at node 10)
Injected flit rate average = 0.0198542
	minimum = 0.0163333 (at node 4)
	maximum = 0.024 (at node 10)
Accepted flit rate average= 0.019875
	minimum = 0.0163333 (at node 1)
	maximum = 0.024 (at node 10)
Injected packet length average = 1
Accepted packet length average = 1
Total in-flight flits = 4 (4 measured)
latency change    = 0.0211552
throughput change = 0.00314465
Class 0:
Packet latency average = 19.1305
	minimum = 7
	maximum = 38
Network latency average = 19.1305
	minimum = 7
	maximum = 38
Slowest packet = 25484
Flit latency average = 19.1379
	minimum = 7
	maximum = 38
Slowest flit = 25484
Fragmentation average = 0
	minimum = 0
	maximum = 0
Injected packet rate average = 0.0198438
	minimum = 0.01675 (at node 4)
	maximum = 0.02425 (at node 10)
Accepted packet rate average = 0.0198281
	minimum = 0.01675 (at node 1)
	maximum = 0.02425 (at node 10)
Injected flit rate average = 0.0198438
	minimum = 0.01675 (at node 4)
	maximum = 0.02425 (at node 10)
Accepted flit rate average= 0.0198281
	minimum = 0.01675 (at node 1)
	maximum = 0.02425 (at node 10)
Injected packet length average = 1
Accepted packet length average = 1
Total in-flight flits = 6 (6 measured)
latency change    = 0.00612064
throughput change = 0.00236407
Class 0:
Packet latency average = 19.1209
	minimum = 7
	maximum = 38
Network latency average = 19.1209
	minimum = 7
	maximum = 38
Slowest packet = 25484
Flit latency average = 19.1268
	minimum = 7
	maximum = 38
Slowest flit = 25484
Fragmentation average = 0
	minimum = 0
	maximum = 0
Injected packet rate average = 0.02
	minimum = 0.0166 (at node 4)
	maximum = 0.0232 (at node 10)
Accepted packet rate average = 0.0200125
	minimum = 0.0166 (at node 1)
	maximum = 0.023 (at node 10)
Injected flit rate average = 0.02
	minimum = 0.0166 (at node 4)
	maximum = 0.0232 (at node 10)
Accepted flit rate average= 0.0200125
	minimum = 0.0166 (at node 1)
	maximum = 0.023 (at node 10)
Injected packet length average = 1
Accepted packet length average = 1
Total in-flight flits = 4 (4 measured)
latency change    = 0.000502625
throughput change = 0.00921299
Draining all recorded packets ...
Draining remaining packets ...
Time taken is 8050 cycles
Class 0:
Packet latency average = 19.9029
	minimum = 7
	maximum = 38
Network latency average = 19.9029
	minimum = 7
	maximum = 38
Slowest packet = 26876
Flit latency average = 19.9029
	minimum = 7
	maximum = 38
Slowest flit = 26876
Fragmentation average = 0
	minimum = 0
	maximum = 0
Injected packet rate average = 0.0199375
	minimum = 0.009 (at node 14)
	maximum = 0.028 (at node 13)
Accepted packet rate average = 0.0193125
	minimum = 0.009 (at node 11)
	maximum = 0.028 (at node 7)
Injected flit rate average = 0.0199375
	minimum = 0.009 (at node 14)
	maximum = 0.028 (at node 13)
Accepted flit rate average= 0.0193125
	minimum = 0.009 (at node 11)
	maximum = 0.028 (at node 7)
Injected packet length average = 1
Accepted packet length average = 1
Total in-flight flits = 10 (0 measured)
latency change    = 1
throughput change = 1
Class 0:
Packet latency average = 19.5112
	minimum = 7
	maximum = 44
Network latency average = 19.5112
	minimum = 7
	maximum = 44
Slowest packet = 27406
Flit latency average = 19.5112
	minimum = 7
	maximum = 44
Slowest flit = 27406
Fragmentation average = 0
	minimum = 0
	maximum = 0
Injected packet rate average = 0.0195938
	minimum = 0.0125 (at node 14)
	maximum = 0.025 (at node 12)
Accepted packet rate average = 0.0195
	minimum = 0.0125 (at node 11)
	maximum = 0.0245 (at node 3)
Injected flit rate average = 0.0195938
	minimum = 0.0125 (at node 14)
	maximum = 0.025 (at node 12)
Accepted flit rate average= 0.0195
	minimum = 0.0125 (at node 11)
	maximum = 0.0245 (at node 3)
Injected packet length average = 1
Accepted packet length average = 1
Total in-flight flits = 3 (0 measured)
latency change    = 0.0200754
throughput change = 0.00961538
Class 0:
Packet latency average = 19.991
	minimum = 7
	maximum = 37
Network latency average = 19.991
	minimum = 7
	maximum = 37
Slowest packet = 27434
Flit latency average = 19.991
	minimum = 7
	maximum = 37
Slowest flit = 27434
Fragmentation average = 0
	minimum = 0
	maximum = 0
Injected packet rate average = 0.02125
	minimum = 0.014 (at node 10)
	maximum = 0.035 (at node 3)
Accepted packet rate average = 0.0209375
	minimum = 0.014 (at node 10)
	maximum = 0.033 (at node 12)
Injected flit rate average = 0.02125
	minimum = 0.014 (at node 10)
	maximum = 0.035 (at node 3)
Accepted flit rate average= 0.0209375
	minimum = 0.014 (at node 10)
	maximum = 0.033 (at node 12)
Injected packet length average = 1
Accepted packet length average = 1
Total in-flight flits = 8 (0 measured)
latency change    = 0.0240021
throughput change = 0.0686567
Warmed up ...Time used is 3000 cycles
Class 0:
Packet latency average = 19.4044
	minimum = 7
	maximum = 39
Network latency average = 19.4044
	minimum = 7
	maximum = 39
Slowest packet = 27817
Flit latency average = 19.5596
	minimum = 7
	maximum = 39
Slowest flit = 27817
Fragmentation average = 0
	minimum = 0
	maximum = 0
Injected packet rate average = 0.0204375
	minimum = 0.014 (at node 15)
	maximum = 0.029 (at node 4)
Accepted packet rate average = 0.0204375
	minimum = 0.014 (at node 15)
	maximum = 0.03 (at node 1)
Injected flit rate average = 0.0204375
	minimum = 0.014 (at node 15)
	maximum = 0.029 (at node 4)
Accepted flit rate average= 0.0204375
	minimum = 0.014 (at node 15)
	maximum = 0.03 (at node 1)
Injected packet length average = 1
Accepted packet length average = 1
Total in-flight flits = 8 (8 measured)
latency change    = 0.0302332
throughput change = 0.0244648
Class 0:
Packet latency average = 18.8774
	minimum = 7
	maximum = 39
Network latency average = 18.8774
	minimum = 7
	maximum = 39
Slowest packet = 27817
Flit latency average = 18.965
	minimum = 7
	maximum = 39
Slowest flit = 27817
Fragmentation average = 0
	minimum = 0
	maximum = 0
Injected packet rate average = 0.0194687
	minimum = 0.0155 (at node 3)
	maximum = 0.0255 (at node 4)
Accepted packet rate average = 0.019625
	minimum = 0.016 (at node 13)
	maximum = 0.026 (at node 1)
Injected flit rate average = 0.0194687
	minimum = 0.0155 (at node 3)
	maximum = 0.0255 (at node 4)
Accepted flit rate average= 0.019625
	minimum = 0.016 (at node 13)
	maximum = 0.026 (at node 1)
Injected packet length average = 1
Accepted packet length average = 1
Total in-flight flits = 3 (3 measured)
latency change    = 0.0279153
throughput change = 0.0414013
Class 0:
Packet latency average = 19.1067
	minimum = 7
	maximum = 39
Network latency average = 19.1067
	minimum = 7
	maximum = 39
Slowest packet = 27817
Flit latency average = 19.1647
	minimum = 7
	maximum = 39
Slowest flit = 27817
Fragmentation average = 0
	minimum = 0
	maximum = 0
Injected packet rate average = 0.0189792
	minimum = 0.015 (at node 3)
	maximum = 0.022 (at node 5)
Accepted packet rate average = 0.0191042
	minimum = 0.0156667 (at node 12)
	maximum = 0.0216667 (at node 1)
Injected flit rate average = 0.0189792
	minimum = 0.015 (at node 3)
	maximum = 0.022 (at node 5)
Accepted flit rate average= 0.0191042
	minimum = 0.0156667 (at node 12)
	maximum = 0.0216667 (at node 1)
Injected packet length average = 1
Accepted packet length average = 1
Total in-flight flits = 2 (2 measured)
latency change    = 0.0120006
throughput change = 0.0272628
Draining all recorded packets ...
Draining remaining packets ...
Time taken is 6042 cycles
Class 0:
Packet latency average = 19.3119
	minimum = 7
	maximum = 37
Network latency average = 19.3119
	minimum = 7
	maximum = 37
Slowest packet = 28703
Flit latency average = 19.3119
	minimum = 7
	maximum = 37
Slowest flit = 28703
Fragmentation average = 0
	minimum = 0
	maximum = 0
Injected packet rate average = 0.019
	minimum = 0.011 (at node 2)
	maximum = 0.026 (at node 10)
Accepted packet rate average = 0.0184375
	minimum = 0.011 (at node 8)
	maximum = 0.026 (at node 10)
Injected flit rate average = 0.019
	minimum = 0.011 (at node 2)
	maximum = 0.026 (at node 10)
Accepted flit rate average= 0.0184375
	minimum = 0.011 (at node 8)
	maximum = 0.026 (at node 10)
Injected packet length average = 1
Accepted packet length average = 1
Total in-flight flits = 9 (0 measured)
latency change    = 1
throughput change = 1
Class 0:
Packet latency average = 19.5359
	minimum = 7
	maximum = 37
Network latency average = 19.5359
	minimum = 7
	maximum = 37
Slowest packet = 28703
Flit latency average = 19.5359
	minimum = 7
	maximum = 37
Slowest flit = 28703
Fragmentation average = 0
	minimum = 0
	maximum = 0
Injected packet rate average = 0.02025
	minimum = 0.014 (at node 7)
	maximum = 0.0245 (at node 3)
Accepted packet rate average = 0.02
	minimum = 0.014 (at node 13)
	maximum = 0.0235 (at node 12)
Injected flit rate average = 0.02025
	minimum = 0.014 (at node 7)
	maximum = 0.0245 (at node 3)
Accepted flit rate average= 0.02
	minimum = 0.014 (at node 13)
	maximum = 0.0235 (at node 12)
Injected packet length average = 1
Accepted packet length average = 1
Total in-flight flits = 8 (0 measured)
latency change    = 0.0114698
throughput change = 0.078125
Class 0:
Packet latency average = 19.8286
	minimum = 7
	maximum = 38
Network latency average = 19.8286
	minimum = 7
	maximum = 38
Slowest packet = 29458
Flit latency average = 19.8286
	minimum = 7
	maximum = 38
Slowest flit = 29458
Fragmentation average = 0
	minimum = 0
	maximum = 0
Injected packet rate average = 0.019875
	minimum = 0.012 (at node 8)
	maximum = 0.029 (at node 6)
Accepted packet rate average = 0.0196875
	minimum = 0.012 (at node 2)
	maximum = 0.028 (at node 9)
Injected flit rate average = 0.019875
	minimum = 0.012 (at node 8)
	maximum = 0.029 (at node 6)
Accepted flit rate average= 0.0196875
	minimum = 0.012 (at node 2)
	maximum = 0.028 (at node 9)
Injected packet length average = 1
Accepted packet length average = 1
Total in-flight flits = 11 (0 measured)
latency change    = 0.0147582
throughput change = 0.015873
Warmed up ...Time used is 3000 cycles
[...]
Fragmentation average = 0
	minimum = 0
	maximum = 0
Injected packet rate average = 0.020125
	minimum = 0.012 (at node 15)
	maximum = 0.028 (at node 12)
Accepted packet rate average = 0.0199375
	minimum = 0.012 (at node 13)
	maximum = 0.027 (at node 3)
Injected flit rate average = 0.020125
	minimum = 0.012 (at node 15)
	maximum = 0.028 (at node 12)
Accepted flit rate average= 0.0199375
	minimum = 0.012 (at node 13)
	maximum = 0.027 (at node 3)
Injected packet length average = 1
Accepted packet length average = 1
Total in-flight flits = 3 (0 measured)
latency change    = 1
throughput change = 1
Class 0:
Packet latency average = 20.014
	minimum = 7
	maximum = 38
Network latency average = 20.014
	minimum = 7
	maximum = 38
Slowest packet = 215010
Flit latency average = 20.014
	minimum = 7
	maximum = 38
Slowest flit = 215010
Fragmentation average = 0
	minimum = 0
	maximum = 0
Injected packet rate average = 0.0203125
	minimum = 0.0155 (at node 1)
	maximum = 0.0255 (at node 12)
Accepted packet rate average = 0.0200938
	minimum = 0.0155 (at node 4)
	maximum = 0.025 (at node 7)
Injected flit rate average = 0.0203125
	minimum = 0.0155 (at node 1)
	maximum = 0.0255 (at node 12)
Accepted flit rate average= 0.0200938
	minimum = 0.0155 (at node 4)
	maximum = 0.025 (at node 7)
Injected packet length average = 1
Accepted packet length average = 1
Total in-flight flits = 7 (0 measured)
latency change    = 0.014807
throughput change = 0.00777605
Class 0:
Packet latency average = 20.2252
	minimum = 7
	maximum = 38
Network latency average = 20.2252
	minimum = 7
	maximum = 38
Slowest packet = 215583
Flit latency average = 20.2252
	minimum = 7
	maximum = 38
Slowest flit = 215583
Fragmentation average = 0
	minimum = 0
	maximum = 0
Injected packet rate average = 0.020625
	minimum = 0.016 (at node 5)
	maximum = 0.03 (at node 9)
Accepted packet rate average = 0.0208125
	minimum = 0.015 (at node 15)
	maximum = 0.03 (at node 6)
Injected flit rate average = 0.020625
	minimum = 0.016 (at node 5)
	maximum = 0.03 (at node 9)
Accepted flit rate average= 0.0208125
	minimum = 0.015 (at node 15)
	maximum = 0.03 (at node 6)
Injected packet length average = 1
Accepted packet length average = 1
Total in-flight flits = 4 (0 measured)
latency change    = 0.0104438
throughput change = 0.0345345
Warmed up ...Time used is 3000 cycles
Class 0:
Packet latency average = 19.9877
	minimum = 7
	maximum = 37
Network latency average = 19.9877
	minimum = 7
	maximum = 37
Slowest packet = 215689
Flit latency average = 19.9818
	minimum = 7
	maximum = 37
Slowest flit = 215689
Fragmentation average = 0
	minimum = 0
	maximum = 0
Injected packet rate average = 0.0206875
	minimum = 0.015 (at node 7)
	maximum = 0.027 (at node 13)
Accepted packet rate average = 0.020625
	minimum = 0.015 (at node 13)
	maximum = 0.027 (at node 7)
Injected flit rate average = 0.0206875
	minimum = 0.015 (at node 7)
	maximum = 0.027 (at node 13)
Accepted flit rate average= 0.020625
	minimum = 0.015 (at node 13)
	maximum = 0.027 (at node 7)
Injected packet length average = 1
Accepted packet length average = 1
Total in-flight flits = 5 (5 measured)
latency change    = 0.011882
throughput change = 0.00909091
Class 0:
Packet latency average = 20.4279
	minimum = 7
	maximum = 38
Network latency average = 20.4279
	minimum = 7
	maximum = 38
Slowest packet = 216142
Flit latency average = 20.4221
	minimum = 7
	maximum = 38
Slowest flit = 216142
Fragmentation average = 0
	minimum = 0
	maximum = 0
Injected packet rate average = 0.0200313
	minimum = 0.0135 (at node 10)
	maximum = 0.0265 (at node 8)
Accepted packet rate average = 0.0200625
	minimum = 0.013 (at node 10)
	maximum = 0.0265 (at node 2)
Injected flit rate average = 0.0200313
	minimum = 0.0135 (at node 10)
	maximum = 0.0265 (at node 8)
Accepted flit rate average= 0.0200625
	minimum = 0.013 (at node 10)
	maximum = 0.0265 (at node 2)
Injected packet length average = 1
Accepted packet length average = 1
Total in-flight flits = 3 (3 measured)
latency change    = 0.0215475
throughput change = 0.0280374
Class 0:
Packet latency average = 20.245
	minimum = 7
	maximum = 38
Network latency average = 20.245
	minimum = 7
	maximum = 38
Slowest packet = 216142
Flit latency average = 20.2418
	minimum = 7
	maximum = 38
Slowest flit = 216142
Fragmentation average = 0
	minimum = 0
	maximum = 0
Injected packet rate average = 0.0197292
	minimum = 0.0143333 (at node 5)
	maximum = 0.0253333 (at node 12)
Accepted packet rate average = 0.0197292
	minimum = 0.0143333 (at node 5)
	maximum = 0.0253333 (at node 3)
Injected flit rate average = 0.0197292
	minimum = 0.0143333 (at node 5)
	maximum = 0.0253333 (at node 12)
Accepted flit rate average= 0.0197292
	minimum = 0.0143333 (at node 5)
	maximum = 0.0253333 (at node 3)
Injected packet length average = 1
Accepted packet length average = 1
Total in-flight flits = 4 (4 measured)
latency change    = 0.00903616
throughput change = 0.0168955
Draining all recorded packets ...
Draining remaining packets ...
Time taken is 6044 cycles
Class 0:
Packet latency average = 18.9678
	minimum = 7
	maximum = 37
Network latency average = 18.9678
	minimum = 7
	maximum = 37
Slowest packet = 216632
Flit latency average = 18.9678
	minimum = 7
	maximum = 37
Slowest flit = 216632
Fragmentation average = 0
	minimum = 0
	maximum = 0
Injected packet rate average = 0.02
	minimum = 0.017 (at node 2)
	maximum = 0.024 (at node 0)
Accepted packet rate average = 0.0194375
	minimum = 0.016 (at node 1)
	maximum = 0.024 (at node 0)
Injected flit rate average = 0.02
	minimum = 0.017 (at node 2)
	maximum = 0.024 (at node 0)
Accepted flit rate average= 0.0194375
	minimum = 0.016 (at node 1)
	maximum = 0.024 (at node 0)
Injected packet length average = 1
Accepted packet length average = 1
Total in-flight flits = 9 (0 measured)
latency change    = 1
throughput change = 1
Class 0:
Packet latency average = 19.9371
	minimum = 7
	maximum = 38
Network latency average = 19.9371
	minimum = 7
	maximum = 38
Slowest packet = 216940
Flit latency average = 19.9371
	minimum = 7
	maximum = 38
Slowest flit = 216940
Fragmentation average = 0
	minimum = 0
	maximum = 0
Injected packet rate average = 0.0200313
	minimum = 0.015 (at node 14)
	maximum = 0.024 (at node 1)
Accepted packet rate average = 0.019875
	minimum = 0.015 (at node 10)
	maximum = 0.024 (at node 4)
Injected flit rate average = 0.0200313
	minimum = 0.015 (at node 14)
	maximum = 0.024 (at node 1)
Accepted flit rate average= 0.019875
	minimum = 0.015 (at node 10)
	maximum = 0.024 (at node 4)
Injected packet length average = 1
Accepted packet length average = 1
Total in-flight flits = 5 (0 measured)
latency change    = 0.0486159
throughput change = 0.0220126
Class 0:
Packet latency average = 20.2708
	minimum = 7
	maximum = 37
Network latency average = 20.2708
	minimum = 7
	maximum = 37
Slowest packet = 217261
Flit latency average = 20.2708
	minimum = 7
	maximum = 37
Slowest flit = 217261
Fragmentation average = 0
	minimum = 0
	maximum = 0
Injected packet rate average = 0.021125
	minimum = 0.014 (at node 15)
	maximum = 0.03 (at node 3)
Accepted packet rate average = 0.021
	minimum = 0.014 (at node 15)
	maximum = 0.03 (at node 12)
Injected flit rate average = 0.021125
	minimum = 0.014 (at node 15)
	maximum = 0.03 (at node 3)
Accepted flit rate average= 0.021
	minimum = 0.014 (at node 15)
	maximum = 0.03 (at node 12)
Injected packet length average = 1
Accepted packet length average = 1
Total in-flight flits = 7 (0 measured)
latency change    = 0.0164634
throughput change = 0.0535714
Warmed up ...Time used is 3000 cycles
Class 0:
Packet latency average = 19.5161
	minimum = 7
	maximum = 38
Network latency average = 19.5161
	minimum = 7
	maximum = 38
Slowest packet = 217635
Flit latency average = 19.7343
	minimum = 7
	maximum = 38
Slowest flit = 217635
Fragmentation average = 0
	minimum = 0
	maximum = 0
Injected packet rate average = 0.0176875
	minimum = 0.014 (at node 8)
	maximum = 0.027 (at node 6)
Accepted packet rate average = 0.017875
	minimum = 0.013 (at node 2)
	maximum = 0.027 (at node 9)
Injected flit rate average = 0.0176875
	minimum = 0.014 (at node 8)
	maximum = 0.027 (at node 6)
Accepted flit rate average= 0.017875
	minimum = 0.013 (at node 2)
	maximum = 0.027 (at node 9)
Injected packet length average = 1
Accepted packet length average = 1
Total in-flight flits = 4 (4 measured)
latency change    = 0.0386708
throughput change = 0.174825
Class 0:
Packet latency average = 19.6444
	minimum = 7
	maximum = 38
Network latency average = 19.6444
	minimum = 7
	maximum = 38
Slowest packet = 217635
Flit latency average = 19.7459
	minimum = 7
	maximum = 38
Slowest flit = 217635
Fragmentation average = 0
	minimum = 0
	maximum = 0
Injected packet rate average = 0.0189687
	minimum = 0.0135 (at node 9)
	maximum = 0.024 (at node 7)
Accepted packet rate average = 0.0189375
	minimum = 0.013 (at node 6)
	maximum = 0.0245 (at node 13)
Injected flit rate average = 0.0189687
	minimum = 0.0135 (at node 9)
	maximum = 0.024 (at node 7)
Accepted flit rate average= 0.0189375
	minimum = 0.013 (at node 6)
	maximum = 0.0245 (at node 13)
Injected packet length average = 1
Accepted packet length average = 1
Total in-flight flits = 8 (8 measured)
latency change    = 0.00653002
throughput change = 0.0561056
Class 0:
Packet latency average = 19.8904
	minimum = 7
	maximum = 38
Network latency average = 19.8904
	minimum = 7
	maximum = 38
Slowest packet = 217635
Flit latency average = 19.9542
	minimum = 7
	maximum = 38
Slowest flit = 217635
Fragmentation average = 0
	minimum = 0
	maximum = 0
Injected packet rate average = 0.0195417
	minimum = 0.0156667 (at node 9)
	maximum = 0.0276667 (at node 7)
Accepted packet rate average = 0.0195417
	minimum = 0.0156667 (at node 6)
	maximum = 0.028 (at node 13)
Injected flit rate average = 0.0195417
	minimum = 0.0156667 (at node 9)
	maximum = 0.0276667 (at node 7)
Accepted flit rate average= 0.0195417
	minimum = 0.0156667 (at node 6)
	maximum = 0.028 (at node 13)
Injected packet length average = 1
Accepted packet length average = 1
Total in-flight flits = 7 (7 measured)
latency change    = 0.0123694
throughput change = 0.0309168
Class 0:
Packet latency average = 19.4529
	minimum = 7
	maximum = 38
Network latency average = 19.4529
	minimum = 7
	maximum = 38
Slowest packet = 217635
Flit latency average = 19.5024
	minimum = 7
	maximum = 38
Slowest flit = 217635
Fragmentation average = 0
	minimum = 0
	maximum = 0
Injected packet rate average = 0.0198125
	minimum = 0.0155 (at node 9)
	maximum = 0.0265 (at node 7)
Accepted packet rate average = 0.0198438
	minimum = 0.0155 (at node 6)
	maximum = 0.02675 (at node 13)
Injected flit rate average = 0.0198125
	minimum = 0.0155 (at node 9)
	maximum = 0.0265 (at node 7)
Accepted flit rate average= 0.0198438
	minimum = 0.0155 (at node 6)
	maximum = 0.02675 (at node 13)
Injected packet length average = 1
Accepted packet length average = 1
Total in-flight flits = 5 (5 measured)
latency change    = 0.0224928
throughput change = 0.0152231
Class 0:
Packet latency average = 19.2863
	minimum = 7
	maximum = 38
Network latency average = 19.2863
	minimum = 7
	maximum = 38
Slowest packet = 217635
Flit latency average = 19.3268
	minimum = 7
	maximum = 38
Slowest flit = 217635
Fragmentation average = 0
	minimum = 0
	maximum = 0
Injected packet rate average = 0.019725
	minimum = 0.0166 (at node 9)
	maximum = 0.024 (at node 7)
Accepted packet rate average = 0.0197375
	minimum = 0.0164 (at node 6)
	maximum = 0.024 (at node 13)
Injected flit rate average = 0.019725
	minimum = 0.0166 (at node 9)
	maximum = 0.024 (at node 7)
Accepted flit rate average= 0.0197375
	minimum = 0.0164 (at node 6)
	maximum = 0.024 (at node 13)
Injected packet length average = 1
Accepted packet length average = 1
Total in-flight flits = 6 (6 measured)
latency change    = 0.00863985
throughput change = 0.00538315
Draining all recorded packets ...
Draining remaining packets ...
Time taken is 8065 cycles
Class 0:
Packet latency average = 20.3513
	minimum = 7
	maximum = 40
Network latency average = 20.3513
	minimum = 7
	maximum = 40
Slowest packet = 219410
Flit latency average = 20.3513
	minimum = 7
	maximum = 40
Slowest flit = 219410
Fragmentation average = 0
	minimum = 0
	maximum = 0
Injected packet rate average = 0.0176875
	minimum = 0.01 (at node 14)
	maximum = 0.026 (at node 9)
Accepted packet rate average = 0.0174375
	minimum = 0.01 (at node 11)
	maximum = 0.026 (at node 6)
Injected flit rate average = 0.0176875
	minimum = 0.01 (at node 14)
	maximum = 0.026 (at node 9)
Accepted flit rate average= 0.0174375
	minimum = 0.01 (at node 11)
	maximum = 0.026 (at node 6)
Injected packet length average = 1
Accepted packet length average = 1
Total in-flight flits = 4 (0 measured)
latency change    = 1
throughput change = 1
Class 0:
Packet latency average = 19.4756
	minimum = 7
	maximum = 40
Network latency average = 19.4756
	minimum = 7
	maximum = 40
Slowest packet = 219410
Flit latency average = 19.4756
	minimum = 7
	maximum = 40
Slowest flit = 219410
Fragmentation average = 0
	minimum = 0
	maximum = 0
Injected packet rate average = 0.019375
	minimum = 0.0135 (at node 14)
	maximum = 0.026 (at node 5)
Accepted packet rate average = 0.0191875
	minimum = 0.0135 (at node 11)
	maximum = 0.026 (at node 5)
Injected flit rate average = 0.019375
	minimum = 0.0135 (at node 14)
	maximum = 0.026 (at node 5)
Accepted flit rate average= 0.0191875
	minimum = 0.0135 (at node 11)
	maximum = 0.026 (at node 5)
Injected packet length average = 1
Accepted packet length average = 1
Total in-flight flits = 6 (0 measured)
latency change    = 0.0449632
throughput change = 0.0912052
Class 0:
Packet latency average = 19.7345
	minimum = 7
	maximum = 38
Network latency average = 19.7345
	minimum = 7
	maximum = 38
Slowest packet = 219851
Flit latency average = 19.7345
	minimum = 7
	maximum = 38
Slowest flit = 219851
Fragmentation average = 0
	minimum = 0
	maximum = 0
Injected packet rate average = 0.0215625
	minimum = 0.013 (at node 7)
	maximum = 0.034 (at node 13)
Accepted packet rate average = 0.0211875
	minimum = 0.012 (at node 13)
	maximum = 0.035 (at node 7)
Injected flit rate average = 0.0215625
	minimum = 0.013 (at node 7)
	maximum = 0.034 (at node 13)
Accepted flit rate average= 0.0211875
	minimum = 0.012 (at node 13)
	maximum = 0.035 (at node 7)
Injected packet length average = 1
Accepted packet length average = 1
Total in-flight flits = 12 (0 measured)
latency change    = 0.0131213
throughput change = 0.0943953
Warmed up ...Time used is 3000 cycles
Class 0:
Packet latency average = 19.9732
	minimum = 7
	maximum = 38
Network latency average = 19.9732
	minimum = 7
	maximum = 38
Slowest packet = 220413
Flit latency average = 19.9871
	minimum = 7
	maximum = 38
Slowest flit = 220413
Fragmentation average = 0
	minimum = 0
	maximum = 0
Injected packet rate average = 0.0189375
	minimum = 0.012 (at node 1)
	maximum = 0.031 (at node 2)
Accepted packet rate average = 0.019375
	minimum = 0.013 (at node 4)
	maximum = 0.031 (at node 8)
Injected flit rate average = 0.0189375
	minimum = 0.012 (at node 1)
	maximum = 0.031 (at node 2)
Accepted flit rate average= 0.019375
	minimum = 0.013 (at node 4)
	maximum = 0.031 (at node 8)
Injected packet length average = 1
Accepted packet length average = 1
Total in-flight flits = 5 (5 measured)
latency change    = 0.0119481
throughput change = 0.0935484
Class 0:
Packet latency average = 19.9984
	minimum = 7
	maximum = 38
Network latency average = 19.9984
	minimum = 7
	maximum = 38
Slowest packet = 220413
Flit latency average = 20.0046
	minimum = 7
	maximum = 38
Slowest flit = 220413
Fragmentation average = 0
	minimum = 0
	maximum = 0
Injected packet rate average = 0.02025
	minimum = 0.0125 (at node 14)
	maximum = 0.0255 (at node 2)
Accepted packet rate average = 0.0204063
	minimum = 0.0125 (at node 11)
	maximum = 0.025 (at node 8)
Injected flit rate average = 0.02025
	minimum = 0.0125 (at node 14)
	maximum = 0.0255 (at node 2)
Accepted flit rate average= 0.0204063
	minimum = 0.0125 (at node 11)
	maximum = 0.025 (at node 8)
Injected packet length average = 1
Accepted packet length average = 1
Total in-flight flits = 7 (7 measured)
latency change    = 0.00126438
throughput change = 0.050536
Class 0:
Packet latency average = 19.6869
	minimum = 7
	maximum = 40
Network latency average = 19.6869
	minimum = 7
	maximum = 40
Slowest packet = 220989
Flit latency average = 19.6951
	minimum = 7
	maximum = 40
Slowest flit = 220989
Fragmentation average = 0
	minimum = 0
	maximum = 0
Injected packet rate average = 0.0197083
	minimum = 0.013 (at node 14)
	maximum = 0.0226667 (at node 2)
Accepted packet rate average = 0.0198125
	minimum = 0.0126667 (at node 11)
	maximum = 0.0226667 (at node 8)
Injected flit rate average = 0.0197083
	minimum = 0.013 (at node 14)
	maximum = 0.0226667 (at node 2)
Accepted flit rate average= 0.0198125
	minimum = 0.0126667 (at node 11)
	maximum = 0.0226667 (at node 8)
Injected packet length average = 1
Accepted packet length average = 1
Total in-flight flits = 7 (7 measured)
latency change    = 0.0158247
throughput change = 0.0299685
Class 0:
Packet latency average = 19.7907
	minimum = 7
	maximum = 40
Network latency average = 19.7907
	minimum = 7
	maximum = 40
Slowest packet = 220989
Flit latency average = 19.7957
	minimum = 7
	maximum = 40
Slowest flit = 220989
Fragmentation average = 0
	minimum = 0
	maximum = 0
Injected packet rate average = 0.0202344
	minimum = 0.015 (at node 14)
	maximum = 0.023 (at node 7)
Accepted packet rate average = 0.0203438
	minimum = 0.015 (at node 11)
	maximum = 0.02275 (at node 13)
Injected flit rate average = 0.0202344
	minimum = 0.015 (at node 14)
	maximum = 0.023 (at node 7)
Accepted flit rate average= 0.0203438
	minimum = 0.015 (at node 11)
	maximum = 0.02275 (at node 13)
Injected packet length average = 1
Accepted packet length average = 1
Total in-flight flits = 5 (5 measured)
latency change    = 0.00524472
throughput change = 0.0261137
Class 0:
Packet latency average = 19.8574
	minimum = 7
	maximum = 40
Network latency average = 19.8574
	minimum = 7
	maximum = 40
Slowest packet = 220989
Flit latency average = 19.8609
	minimum = 7
	maximum = 40
Slowest flit = 220989
Fragmentation average = 0
	minimum = 0
	maximum = 0
Injected packet rate average = 0.02045
	minimum = 0.0152 (at node 14)
	maximum = 0.0228 (at node 7)
Accepted packet rate average = 0.0204875
	minimum = 0.0152 (at node 11)
	maximum = 0.0226 (at node 8)
Injected flit rate average = 0.02045
	minimum = 0.0152 (at node 14)
	maximum = 0.0228 (at node 7)
Accepted flit rate average= 0.0204875
	minimum = 0.0152 (at node 11)
	maximum = 0.0226 (at node 8)
Injected packet length average = 1
Accepted packet length average = 1
Total in-flight flits = 9 (9 measured)
latency change    = 0.00335938
throughput change = 0.00701647
Draining all recorded packets ...
Draining remaining packets ...
Time taken is 8041 cycles
====== Overall Traffic Statistics ======
====== Traffic class 0 ======
Packet latency average = 19.5217 (100 samples)
	minimum = 7 (100 samples)
	maximum = 39.22 (100 samples)
Network latency average = 19.5217 (100 samples)
	minimum = 7 (100 samples)
	maximum = 39.22 (100 samples)
Flit latency average = 19.5481 (100 samples)
	minimum = 7 (100 samples)
	maximum = 39.22 (100 samples)
Fragmentation average = 0 (100 samples)
	minimum = 0 (100 samples)
	maximum = 0 (100 samples)
Injected packet rate average = 0.02005 (100 samples)
	minimum = 0.0162021 (100 samples)
	maximum = 0.024132 (100 samples)
Accepted packet rate average = 0.0200558 (100 samples)
	minimum = 0.0161986 (100 samples)
	maximum = 0.0241339 (100 samples)
Injected flit rate average = 0.02005 (100 samples)
	minimum = 0.0162021 (100 samples)
	maximum = 0.024132 (100 samples)
Accepted flit rate average = 0.0200558 (100 samples)
	minimum = 0.0161986 (100 samples)
	maximum = 0.0241339 (100 samples)
Injected packet size average = 1 (100 samples)
Accepted packet size average = 1 (100 samples)
Hops average = 3.50048 (100 samples)
Total run time 5.28106
