BEGIN Configuration File: /tmp/tmpd03q4xf9.cfg
topology = mesh;
k = 4;
n = 2;
routing_function = gnn_port_score_route_4x4;
num_vcs = 4;
vc_buf_size = 4;
wait_for_tail_credit = 1;
vc_allocator = islip;
sw_allocator = islip;
alloc_iters = 1;
credit_delay = 2;
routing_delay = 1;
vc_alloc_delay = 1;
sw_alloc_delay = 1;
input_speedup = 2;
output_speedup = 1;
internal_speedup = 1.0;
traffic = hotspot;
packet_size = 1;
sim_type = latency;
injection_rate = 0.01;
warmup_periods = 3;
sample_period = 500;
sim_count = 50;
seed = 1;
link_failures = 2;
fail_seed = 303;

END Configuration File: /tmp/tmpd03q4xf9.cfg
failure at node 9, channel 2 (1/2)
failure at node 15, channel 3 (2/2)
Class 0:
Packet latency average = 19.9412
	minimum = 7
	maximum = 33
Network latency average = 19.9412
	minimum = 7
	maximum = 33
Slowest packet = 19
Flit latency average = 19.9412
	minimum = 7
	maximum = 33
Slowest flit = 19
Fragmentation average = 0
	minimum = 0
	maximum = 0
Injected packet rate average = 0.011125
	minimum = 0.006 (at node 1)
	maximum = 0.022 (at node 7)
Accepted packet rate average = 0.010625
	minimum = 0 (at node 0)
	maximum = 0.17 (at node 2)
Injected flit rate average = 0.011125
	minimum = 0.006 (at node 1)
	maximum = 0.022 (at node 7)
Accepted flit rate average= 0.010625
	minimum = 0 (at node 0)
	maximum = 0.17 (at node 2)
Injected packet length average = 1
Accepted packet length average = 1
Total in-flight flits = 4 (0 measured)
latency change    = 1
throughput change = 1
Class 0:
Packet latency average = 20.0769
	minimum = 7
	maximum = 38
Network latency average = 20.0769
	minimum = 7
	maximum = 38
Slowest packet = 128
Flit latency average = 20.0769
	minimum = 7
	maximum = 38
Slowest flit = 128
Fragmentation average = 0
	minimum = 0
	maximum = 0
Injected packet rate average = 0.0108125
	minimum = 0.006 (at node 2)
	maximum = 0.019 (at node 7)
Accepted packet rate average = 0.0105625
	minimum = 0 (at node 0)
	maximum = 0.169 (at node 2)
Injected flit rate average = 0.0108125
	minimum = 0.006 (at node 2)
	maximum = 0.019 (at node 7)
Accepted flit rate average= 0.0105625
	minimum = 0 (at node 0)
	maximum = 0.169 (at node 2)
Injected packet length average = 1
Accepted packet length average = 1
Total in-flight flits = 4 (0 measured)
latency change    = 0.00676133
throughput change = 0.00591716
Class 0:
Packet latency average = 21.9459
	minimum = 7
	maximum = 39
Network latency average = 21.9459
	minimum = 7
	maximum = 39
Slowest packet = 193
Flit latency average = 21.9459
	minimum = 7
	maximum = 39
Slowest flit = 193
Fragmentation average = 0
	minimum = 0
	maximum = 0
Injected packet rate average = 0.009
	minimum = 0.002 (at node 6)
	maximum = 0.026 (at node 12)
Accepted packet rate average = 0.00925
	minimum = 0 (at node 0)
	maximum = 0.148 (at node 2)
Injected flit rate average = 0.009
	minimum = 0.002 (at node 6)
	maximum = 0.026 (at node 12)
Accepted flit rate average= 0.00925
	minimum = 0 (at node 0)
	maximum = 0.148 (at node 2)
Injected packet length average = 1
Accepted packet length average = 1
Total in-flight flits = 2 (0 measured)
latency change    = 0.0851648
throughput change = 0.141892
Warmed up ...Time used is 1500 cycles
Class 0:
Packet latency average = 21.4757
	minimum = 7
	maximum = 45
Network latency average = 21.4757
	minimum = 7
	maximum = 45
Slowest packet = 307
Flit latency average = 21.5429
	minimum = 7
	maximum = 45
Slowest flit = 307
Fragmentation average = 0
	minimum = 0
	maximum = 0
Injected packet rate average = 0.0135
	minimum = 0.006 (at node 2)
	maximum = 0.026 (at node 8)
Accepted packet rate average = 0.013125
	minimum = 0 (at node 0)
	maximum = 0.21 (at node 2)
Injected flit rate average = 0.0135
	minimum = 0.006 (at node 2)
	maximum = 0.026 (at node 8)
Accepted flit rate average= 0.013125
	minimum = 0 (at node 0)
	maximum = 0.21 (at node 2)
Injected packet length average = 1
Accepted packet length average = 1
Total in-flight flits = 5 (5 measured)
latency change    = 0.0218953
throughput change = 0.295238
Class 0:
Packet latency average = 21.1316
	minimum = 7
	maximum = 45
Network latency average = 21.1316
	minimum = 7
	maximum = 45
Slowest packet = 307
Flit latency average = 21.1719
	minimum = 7
	maximum = 45
Slowest flit = 307
Fragmentation average = 0
	minimum = 0
	maximum = 0
Injected packet rate average = 0.0119375
	minimum = 0.007 (at node 0)
	maximum = 0.019 (at node 8)
Accepted packet rate average = 0.012
	minimum = 0 (at node 0)
	maximum = 0.192 (at node 2)
Injected flit rate average = 0.0119375
	minimum = 0.007 (at node 0)
	maximum = 0.019 (at node 8)
Accepted flit rate average= 0.012
	minimum = 0 (at node 0)
	maximum = 0.192 (at node 2)
Injected packet length average = 1
Accepted packet length average = 1
Total in-flight flits = 1 (1 measured)
latency change    = 0.016286
throughput change = 0.09375
Class 0:
Packet latency average = 20.9361
	minimum = 7
	maximum = 45
Network latency average = 20.9361
	minimum = 7
	maximum = 45
Slowest packet = 307
Flit latency average = 20.9664
	minimum = 7
	maximum = 45
Slowest flit = 307
Fragmentation average = 0
	minimum = 0
	maximum = 0
Injected packet rate average = 0.0112083
	minimum = 0.006 (at node 0)
	maximum = 0.0153333 (at node 8)
Accepted packet rate average = 0.0111667
	minimum = 0 (at node 0)
	maximum = 0.178667 (at node 2)
Injected flit rate average = 0.0112083
	minimum = 0.006 (at node 0)
	maximum = 0.0153333 (at node 8)
Accepted flit rate average= 0.0111667
	minimum = 0 (at node 0)
	maximum = 0.178667 (at node 2)
Injected packet length average = 1
Accepted packet length average = 1
Total in-flight flits = 3 (3 measured)
latency change    = 0.0093374
throughput change = 0.0746269
Class 0:
Packet latency average = 20.457
	minimum = 7
	maximum = 45
Network latency average = 20.457
	minimum = 7
	maximum = 45
Slowest packet = 307
Flit latency average = 20.4838
	minimum = 7
	maximum = 45
Slowest flit = 307
Fragmentation average = 0
	minimum = 0
	maximum = 0
Injected packet rate average = 0.0106875
	minimum = 0.0055 (at node 0)
	maximum = 0.0135 (at node 8)
Accepted packet rate average = 0.0105938
	minimum = 0 (at node 0)
	maximum = 0.1695 (at node 2)
Injected flit rate average = 0.0106875
	minimum = 0.0055 (at node 0)
	maximum = 0.0135 (at node 8)
Accepted flit rate average= 0.0105938
	minimum = 0 (at node 0)
	maximum = 0.1695 (at node 2)
Injected packet length average = 1
Accepted packet length average = 1
Total in-flight flits = 5 (5 measured)
latency change    = 0.0234207
throughput change = 0.0540806
Class 0:
Packet latency average = 20.512
	minimum = 7
	maximum = 45
Network latency average = 20.512
	minimum = 7
	maximum = 45
Slowest packet = 307
Flit latency average = 20.5333
	minimum = 7
	maximum = 45
Slowest flit = 307
Fragmentation average = 0
	minimum = 0
	maximum = 0
Injected packet rate average = 0.010475
	minimum = 0.006 (at node 0)
	maximum = 0.0132 (at node 6)
Accepted packet rate average = 0.0105
	minimum = 0 (at node 0)
	maximum = 0.168 (at node 2)
Injected flit rate average = 0.010475
	minimum = 0.006 (at node 0)
	maximum = 0.0132 (at node 6)
Accepted flit rate average= 0.0105
	minimum = 0 (at node 0)
	maximum = 0.168 (at node 2)
Injected packet length average = 1
Accepted packet length average = 1
Total in-flight flits = 1 (1 measured)
latency change    = 0.0026808
throughput change = 0.00892857
Class 0:
Packet latency average = 20.3426
	minimum = 7
	maximum = 45
Network latency average = 20.3426
	minimum = 7
	maximum = 45
Slowest packet = 307
Flit latency average = 20.3611
	minimum = 7
	maximum = 45
Slowest flit = 307
Fragmentation average = 0
	minimum = 0
	maximum = 0
Injected packet rate average = 0.0105208
	minimum = 0.00733333 (at node 0)
	maximum = 0.0133333 (at node 14)
Accepted packet rate average = 0.0105
	minimum = 0 (at node 0)
	maximum = 0.168 (at node 2)
Injected flit rate average = 0.0105208
	minimum = 0.00733333 (at node 0)
	maximum = 0.0133333 (at node 14)
Accepted flit rate average= 0.0105
	minimum = 0 (at node 0)
	maximum = 0.168 (at node 2)
Injected packet length average = 1
Accepted packet length average = 1
Total in-flight flits = 3 (3 measured)
latency change    = 0.00832401
throughput change = 0
Class 0:
Packet latency average = 20.3636
	minimum = 7
	maximum = 45
Network latency average = 20.3636
	minimum = 7
	maximum = 45
Slowest packet = 307
Flit latency average = 20.3795
	minimum = 7
	maximum = 45
Slowest flit = 307
Fragmentation average = 0
	minimum = 0
	maximum = 0
Injected packet rate average = 0.0105
	minimum = 0.00742857 (at node 10)
	maximum = 0.0131429 (at node 1)
Accepted packet rate average = 0.0104464
	minimum = 0 (at node 0)
	maximum = 0.167143 (at node 2)
Injected flit rate average = 0.0105
	minimum = 0.00742857 (at node 10)
	maximum = 0.0131429 (at node 1)
Accepted flit rate average= 0.0104464
	minimum = 0 (at node 0)
	maximum = 0.167143 (at node 2)
Injected packet length average = 1
Accepted packet length average = 1
Total in-flight flits = 5 (5 measured)
latency change    = 0.00103159
throughput change = 0.00512821
Draining all recorded packets ...
Draining remaining packets ...
Time taken is 5043 cycles
Class 0:
Packet latency average = 19.7429
	minimum = 7
	maximum = 32
Network latency average = 19.7429
	minimum = 7
	maximum = 32
Slowest packet = 846
Flit latency average = 19.7429
	minimum = 7
	maximum = 32
Slowest flit = 846
Fragmentation average = 0
	minimum = 0
	maximum = 0
Injected packet rate average = 0.009375
	minimum = 0.002 (at node 1)
	maximum = 0.018 (at node 10)
Accepted packet rate average = 0.00875
	minimum = 0 (at node 0)
	maximum = 0.14 (at node 2)
Injected flit rate average = 0.009375
	minimum = 0.002 (at node 1)
	maximum = 0.018 (at node 10)
Accepted flit rate average= 0.00875
	minimum = 0 (at node 0)
	maximum = 0.14 (at node 2)
Injected packet length average = 1
Accepted packet length average = 1
Total in-flight flits = 5 (0 measured)
latency change    = 1
throughput change = 1
Class 0:
Packet latency average = 18.8686
	minimum = 7
	maximum = 38
Network latency average = 18.8686
	minimum = 7
	maximum = 38
Slowest packet = 905
Flit latency average = 18.8686
	minimum = 7
	maximum = 38
Slowest flit = 905
Fragmentation average = 0
	minimum = 0
	maximum = 0
Injected packet rate average = 0.0088125
	minimum = 0.004 (at node 1)
	maximum = 0.015 (at node 2)
Accepted packet rate average = 0.0085625
	minimum = 0 (at node 0)
	maximum = 0.137 (at node 2)
Injected flit rate average = 0.0088125
	minimum = 0.004 (at node 1)
	maximum = 0.015 (at node 2)
Accepted flit rate average= 0.0085625
	minimum = 0 (at node 0)
	maximum = 0.137 (at node 2)
Injected packet length average = 1
Accepted packet length average = 1
Total in-flight flits = 4 (0 measured)
latency change    = 0.0463332
throughput change = 0.0218978
Class 0:
Packet latency average = 20.1622
	minimum = 7
	maximum = 41
Network latency average = 20.1622
	minimum = 7
	maximum = 41
Slowest packet = 1000
Flit latency average = 20.1622
	minimum = 7
	maximum = 41
Slowest flit = 1000
Fragmentation average = 0
	minimum = 0
	maximum = 0
Injected packet rate average = 0.00925
	minimum = 0.004 (at node 1)
	maximum = 0.014 (at node 9)
Accepted packet rate average = 0.00925
	minimum = 0 (at node 0)
	maximum = 0.148 (at node 2)
Injected flit rate average = 0.00925
	minimum = 0.004 (at node 1)
	maximum = 0.014 (at node 9)
Accepted flit rate average= 0.00925
	minimum = 0 (at node 0)
	maximum = 0.148 (at node 2)
Injected packet length average = 1
Accepted packet length average = 1
Total in-flight flits = 4 (0 measured)
latency change    = 0.0641573
throughput change = 0.0743243
Warmed up ...Time used is 1500 cycles
Class 0:
Packet latency average = 20.2817
	minimum = 7
	maximum = 39
Network latency average = 20.2817
	minimum = 7
	maximum = 39
Slowest packet = 1115
Flit latency average = 20.44
	minimum = 7
	maximum = 39
Slowest flit = 1115
Fragmentation average = 0
	minimum = 0
	maximum = 0
Injected packet rate average = 0.009125
	minimum = 0.002 (at node 0)
	maximum = 0.02 (at node 6)
Accepted packet rate average = 0.009375
	minimum = 0 (at node 0)
	maximum = 0.15 (at node 2)
Injected flit rate average = 0.009125
	minimum = 0.002 (at node 0)
	maximum = 0.02 (at node 6)
Accepted flit rate average= 0.009375
	minimum = 0 (at node 0)
	maximum = 0.15 (at node 2)
Injected packet length average = 1
Accepted packet length average = 1
Total in-flight flits = 2 (2 measured)
latency change    = 0.00589339
throughput change = 0.0133333
Class 0:
Packet latency average = 19.5102
	minimum = 7
	maximum = 39
Network latency average = 19.5102
	minimum = 7
	maximum = 39
Slowest packet = 1115
Flit latency average = 19.6093
	minimum = 7
	maximum = 39
Slowest flit = 1115
Fragmentation average = 0
	minimum = 0
	maximum = 0
Injected packet rate average = 0.0094375
	minimum = 0.004 (at node 1)
	maximum = 0.016 (at node 4)
Accepted packet rate average = 0.0094375
	minimum = 0 (at node 0)
	maximum = 0.151 (at node 2)
Injected flit rate average = 0.0094375
	minimum = 0.004 (at node 1)
	maximum = 0.016 (at node 4)
Accepted flit rate average= 0.0094375
	minimum = 0 (at node 0)
	maximum = 0.151 (at node 2)
Injected packet length average = 1
Accepted packet length average = 1
Total in-flight flits = 4 (4 measured)
latency change    = 0.0395427
throughput change = 0.00662252
Class 0:
Packet latency average = 20.6583
	minimum = 7
	maximum = 42
Network latency average = 20.6583
	minimum = 7
	maximum = 42
Slowest packet = 1219
Flit latency average = 20.7008
	minimum = 7
	maximum = 42
Slowest flit = 1219
Fragmentation average = 0
	minimum = 0
	maximum = 0
Injected packet rate average = 0.010125
	minimum = 0.006 (at node 1)
	maximum = 0.0146667 (at node 4)
Accepted packet rate average = 0.0101667
	minimum = 0 (at node 0)
	maximum = 0.162667 (at node 2)
Injected flit rate average = 0.010125
	minimum = 0.006 (at node 1)
	maximum = 0.0146667 (at node 4)
Accepted flit rate average= 0.0101667
	minimum = 0 (at node 0)
	maximum = 0.162667 (at node 2)
Injected packet length average = 1
Accepted packet length average = 1
Total in-flight flits = 3 (3 measured)
latency change    = 0.0555771
throughput change = 0.0717213
Class 0:
Packet latency average = 20.4954
	minimum = 7
	maximum = 42
Network latency average = 20.4954
	minimum = 7
	maximum = 42
Slowest packet = 1219
Flit latency average = 20.5287
	minimum = 7
	maximum = 42
Slowest flit = 1219
Fragmentation average = 0
	minimum = 0
	maximum = 0
Injected packet rate average = 0.0103125
	minimum = 0.007 (at node 1)
	maximum = 0.0145 (at node 4)
Accepted packet rate average = 0.0103438
	minimum = 0 (at node 0)
	maximum = 0.1655 (at node 2)
Injected flit rate average = 0.0103125
	minimum = 0.007 (at node 1)
	maximum = 0.0145 (at node 4)
Accepted flit rate average= 0.0103438
	minimum = 0 (at node 0)
	maximum = 0.1655 (at node 2)
Injected packet length average = 1
Accepted packet length average = 1
Total in-flight flits = 3 (3 measured)
latency change    = 0.00794912
throughput change = 0.0171198
Class 0:
Packet latency average = 20.3921
	minimum = 7
	maximum = 42
Network latency average = 20.3921
	minimum = 7
	maximum = 42
Slowest packet = 1219
Flit latency average = 20.4201
	minimum = 7
	maximum = 42
Slowest flit = 1219
Fragmentation average = 0
	minimum = 0
	maximum = 0
Injected packet rate average = 0.010175
	minimum = 0.0068 (at node 1)
	maximum = 0.0132 (at node 4)
Accepted packet rate average = 0.010175
	minimum = 0 (at node 0)
	maximum = 0.1628 (at node 2)
Injected flit rate average = 0.010175
	minimum = 0.0068 (at node 1)
	maximum = 0.0132 (at node 4)
Accepted flit rate average= 0.010175
	minimum = 0 (at node 0)
	maximum = 0.1628 (at node 2)
Injected packet length average = 1
Accepted packet length average = 1
Total in-flight flits = 4 (4 measured)
latency change    = 0.00506831
throughput change = 0.0165848
Class 0:
Packet latency average = 20.395
	minimum = 7
	maximum = 42
Network latency average = 20.395
	minimum = 7
	maximum = 42
Slowest packet = 1219
Flit latency average = 20.4187
	minimum = 7
	maximum = 42
Slowest flit = 1219
Fragmentation average = 0
	minimum = 0
	maximum = 0
Injected packet rate average = 0.00991667
	minimum = 0.00733333 (at node 8)
	maximum = 0.012 (at node 4)
Accepted packet rate average = 0.01
	minimum = 0 (at node 0)
	maximum = 0.16 (at node 2)
Injected flit rate average = 0.00991667
	minimum = 0.00733333 (at node 8)
	maximum = 0.012 (at node 4)
Accepted flit rate average= 0.01
	minimum = 0 (at node 0)
	maximum = 0.16 (at node 2)
Injected packet length average = 1
Accepted packet length average = 1
Total in-flight flits = 0 (0 measured)
latency change    = 0.000142115
throughput change = 0.0175
Draining all recorded packets ...
Draining remaining packets ...
Time taken is 4504 cycles
Class 0:
Packet latency average = 19.4494
	minimum = 7
	maximum = 52
Network latency average = 19.4494
	minimum = 7
	maximum = 52
Slowest packet = 1546
Flit latency average = 19.4494
	minimum = 7
	maximum = 52
Slowest flit = 1546
Fragmentation average = 0
	minimum = 0
	maximum = 0
Injected packet rate average = 0.011625
	minimum = 0.006 (at node 3)
	maximum = 0.022 (at node 6)
Accepted packet rate average = 0.011125
	minimum = 0 (at node 0)
	maximum = 0.178 (at node 2)
Injected flit rate average = 0.011625
	minimum = 0.006 (at node 3)
	maximum = 0.022 (at node 6)
Accepted flit rate average= 0.011125
	minimum = 0 (at node 0)
	maximum = 0.178 (at node 2)
Injected packet length average = 1
Accepted packet length average = 1
Total in-flight flits = 4 (0 measured)
latency change    = 1
throughput change = 1
Class 0:
Packet latency average = 19.3372
	minimum = 7
	maximum = 52
Network latency average = 19.3372
	minimum = 7
	maximum = 52
Slowest packet = 1546
Flit latency average = 19.3372
	minimum = 7
	maximum = 52
Slowest flit = 1546
Fragmentation average = 0
	minimum = 0
	maximum = 0
Injected packet rate average = 0.0109375
	minimum = 0.006 (at node 8)
	maximum = 0.02 (at node 6)
Accepted packet rate average = 0.01075
	minimum = 0 (at node 0)
	maximum = 0.172 (at node 2)
Injected flit rate average = 0.0109375
	minimum = 0.006 (at node 8)
	maximum = 0.02 (at node 6)
Accepted flit rate average= 0.01075
	minimum = 0 (at node 0)
	maximum = 0.172 (at node 2)
Injected packet length average = 1
Accepted packet length average = 1
Total in-flight flits = 3 (0 measured)
latency change    = 0.00580378
throughput change = 0.0348837
Class 0:
Packet latency average = 20.625
	minimum = 7
	maximum = 38
Network latency average = 20.625
	minimum = 7
	maximum = 38
Slowest packet = 1726
Flit latency average = 20.625
	minimum = 7
	maximum = 38
Slowest flit = 1726
Fragmentation average = 0
	minimum = 0
	maximum = 0
Injected packet rate average = 0.00875
	minimum = 0.002 (at node 0)
	maximum = 0.014 (at node 1)
Accepted packet rate average = 0.009
	minimum = 0 (at node 0)
	maximum = 0.144 (at node 2)
Injected flit rate average = 0.00875
	minimum = 0.002 (at node 0)
	maximum = 0.014 (at node 1)
Accepted flit rate average= 0.009
	minimum = 0 (at node 0)
	maximum = 0.144 (at node 2)
Injected packet length average = 1
Accepted packet length average = 1
Total in-flight flits = 1 (0 measured)
latency change    = 0.0624383
throughput change = 0.194444
Warmed up ...Time used is 1500 cycles
Class 0:
Packet latency average = 20.2899
	minimum = 7
	maximum = 33
Network latency average = 20.2899
	minimum = 7
	maximum = 33
Slowest packet = 1775
Flit latency average = 20.3857
	minimum = 7
	maximum = 33
Slowest flit = 1775
Fragmentation average = 0
	minimum = 0
	maximum = 0
Injected packet rate average = 0.009
	minimum = 0.004 (at node 3)
	maximum = 0.014 (at node 9)
Accepted packet rate average = 0.00875
	minimum = 0 (at node 0)
	maximum = 0.14 (at node 2)
Injected flit rate average = 0.009
	minimum = 0.004 (at node 3)
	maximum = 0.014 (at node 9)
Accepted flit rate average= 0.00875
	minimum = 0 (at node 0)
	maximum = 0.14 (at node 2)
Injected packet length average = 1
Accepted packet length average = 1
Total in-flight flits = 3 (3 measured)
latency change    = 0.0165179
throughput change = 0.0285714
Class 0:
Packet latency average = 20.1603
	minimum = 7
	maximum = 33
Network latency average = 20.1603
	minimum = 7
	maximum = 33
Slowest packet = 1775
Flit latency average = 20.2121
	minimum = 7
	maximum = 33
Slowest flit = 1775
Fragmentation average = 0
	minimum = 0
	maximum = 0
Injected packet rate average = 0.0085
	minimum = 0.005 (at node 3)
	maximum = 0.017 (at node 9)
Accepted packet rate average = 0.00825
	minimum = 0 (at node 0)
	maximum = 0.132 (at node 2)
Injected flit rate average = 0.0085
	minimum = 0.005 (at node 3)
	maximum = 0.017 (at node 9)
Accepted flit rate average= 0.00825
	minimum = 0 (at node 0)
	maximum = 0.132 (at node 2)
Injected packet length average = 1
Accepted packet length average = 1
Total in-flight flits = 5 (5 measured)
latency change    = 0.00642598
throughput change = 0.0606061
Class 0:
Packet latency average = 20.4089
	minimum = 7
	maximum = 33
Network latency average = 20.4089
	minimum = 7
	maximum = 33
Slowest packet = 1775
Flit latency average = 20.4412
	minimum = 7
	maximum = 33
Slowest flit = 1775
Fragmentation average = 0
	minimum = 0
	maximum = 0
Injected packet rate average = 0.008625
	minimum = 0.00466667 (at node 0)
	maximum = 0.0133333 (at node 9)
Accepted packet rate average = 0.0085
	minimum = 0 (at node 0)
	maximum = 0.136 (at node 2)
Injected flit rate average = 0.008625
	minimum = 0.00466667 (at node 0)
	maximum = 0.0133333 (at node 9)
Accepted flit rate average= 0.0085
	minimum = 0 (at node 0)
	maximum = 0.136 (at node 2)
Injected packet length average = 1
Accepted packet length average = 1
Total in-flight flits = 4 (4 measured)
latency change    = 0.0121791
throughput change = 0.0294118
Class 0:
Packet latency average = 20.0785
	minimum = 7
	maximum = 36
Network latency average = 20.0785
	minimum = 7
	maximum = 36
Slowest packet = 1972
Flit latency average = 20.102
	minimum = 7
	maximum = 36
Slowest flit = 1972
Fragmentation average = 0
	minimum = 0
	maximum = 0
Injected packet rate average = 0.00925
	minimum = 0.0055 (at node 0)
	maximum = 0.013 (at node 8)
Accepted packet rate average = 0.0091875
	minimum = 0 (at node 0)
	maximum = 0.147 (at node 2)
Injected flit rate average = 0.00925
	minimum = 0.0055 (at node 0)
	maximum = 0.013 (at node 8)
Accepted flit rate average= 0.0091875
	minimum = 0 (at node 0)
	maximum = 0.147 (at node 2)
Injected packet length average = 1
Accepted packet length average = 1
Total in-flight flits = 3 (3 measured)
latency change    = 0.0164539
throughput change = 0.0748299
Class 0:
Packet latency average = 20.1332
	minimum = 7
	maximum = 36
Network latency average = 20.1332
	minimum = 7
	maximum = 36
Slowest packet = 1972
Flit latency average = 20.1518
	minimum = 7
	maximum = 36
Slowest flit = 1972
Fragmentation average = 0
	minimum = 0
	maximum = 0
Injected packet rate average = 0.0093
	minimum = 0.0064 (at node 0)
	maximum = 0.012 (at node 4)
Accepted packet rate average = 0.009225
	minimum = 0 (at node 0)
	maximum = 0.1476 (at node 2)
Injected flit rate average = 0.0093
	minimum = 0.0064 (at node 0)
	maximum = 0.012 (at node 4)
Accepted flit rate average= 0.009225
	minimum = 0 (at node 0)
	maximum = 0.1476 (at node 2)
Injected packet length average = 1
Accepted packet length average = 1
Total in-flight flits = 4 (4 measured)
latency change    = 0.00271462
throughput change = 0.00406504
Class 0:
Packet latency average = 20.3803
	minimum = 7
	maximum = 36
Network latency average = 20.3803
	minimum = 7
	maximum = 36
Slowest packet = 1972
Flit latency average = 20.3958
	minimum = 7
	maximum = 36
Slowest flit = 1972
Fragmentation average = 0
	minimum = 0
	maximum = 0
Injected packet rate average = 0.0089375
	minimum = 0.00633333 (at node 0)
	maximum = 0.011 (at node 4)
Accepted packet rate average = 0.00889583
	minimum = 0 (at node 0)
	maximum = 0.142333 (at node 2)
Injected flit rate average = 0.0089375
	minimum = 0.00633333 (at node 0)
	maximum = 0.011 (at node 4)
Accepted flit rate average= 0.00889583
	minimum = 0 (at node 0)
	maximum = 0.142333 (at node 2)
Injected packet length average = 1
Accepted packet length average = 1
Total in-flight flits = 3 (3 measured)
latency change    = 0.0121259
throughput change = 0.0370023
Class 0:
Packet latency average = 20.246
	minimum = 7
	maximum = 49
Network latency average = 20.246
	minimum = 7
	maximum = 49
Slowest packet = 2243
Flit latency average = 20.2595
	minimum = 7
	maximum = 49
Slowest flit = 2243
Fragmentation average = 0
	minimum = 0
	maximum = 0
Injected packet rate average = 0.00898214
	minimum = 0.00685714 (at node 0)
	maximum = 0.0108571 (at node 4)
Accepted packet rate average = 0.00894643
	minimum = 0 (at node 0)
	maximum = 0.143143 (at node 2)
Injected flit rate average = 0.00898214
	minimum = 0.00685714 (at node 0)
	maximum = 0.0108571 (at node 4)
Accepted flit rate average= 0.00894643
	minimum = 0 (at node 0)
	maximum = 0.143143 (at node 2)
Injected packet length average = 1
Accepted packet length average = 1
Total in-flight flits = 3 (3 measured)
latency change    = 0.0066325
throughput change = 0.00565536
Draining all recorded packets ...
Draining remaining packets ...
Time taken is 5048 cycles
Class 0:
Packet latency average = 20.4545
	minimum = 7
	maximum = 35
Network latency average = 20.4545
	minimum = 7
	maximum = 35
Slowest packet = 2314
Flit latency average = 20.4545
	minimum = 7
	maximum = 35
Slowest flit = 2314
Fragmentation average = 0
	minimum = 0
	maximum = 0
Injected packet rate average = 0.00975
	minimum = 0 (at node 5)
	maximum = 0.016 (at node 8)
Accepted packet rate average = 0.009625
	minimum = 0 (at node 0)
	maximum = 0.154 (at node 2)
Injected flit rate average = 0.00975
	minimum = 0 (at node 5)
	maximum = 0.016 (at node 8)
Accepted flit rate average= 0.009625
	minimum = 0 (at node 0)
	maximum = 0.154 (at node 2)
Injected packet length average = 1
Accepted packet length average = 1
Total in-flight flits = 1 (0 measured)
latency change    = 1
throughput change = 1
Class 0:
Packet latency average = 20.75
	minimum = 7
	maximum = 36
Network latency average = 20.75
	minimum = 7
	maximum = 36
Slowest packet = 2389
Flit latency average = 20.75
	minimum = 7
	maximum = 36
Slowest flit = 2389
Fragmentation average = 0
	minimum = 0
	maximum = 0
Injected packet rate average = 0.0099375
	minimum = 0.005 (at node 5)
	maximum = 0.013 (at node 0)
Accepted packet rate average = 0.00975
	minimum = 0 (at node 0)
	maximum = 0.156 (at node 2)
Injected flit rate average = 0.0099375
	minimum = 0.005 (at node 5)
	maximum = 0.013 (at node 0)
Accepted flit rate average= 0.00975
	minimum = 0 (at node 0)
	maximum = 0.156 (at node 2)
Injected packet length average = 1
Accepted packet length average = 1
Total in-flight flits = 3 (0 measured)
latency change    = 0.0142388
throughput change = 0.0128205
Class 0:
Packet latency average = 19.1067
	minimum = 7
	maximum = 33
Network latency average = 19.1067
	minimum = 7
	maximum = 33
Slowest packet = 2496
Flit latency average = 19.1067
	minimum = 7
	maximum = 33
Slowest flit = 2496
Fragmentation average = 0
	minimum = 0
	maximum = 0
Injected packet rate average = 0.0095
	minimum = 0.004 (at node 9)
	maximum = 0.014 (at node 2)
Accepted packet rate average = 0.009375
	minimum = 0 (at node 0)
	maximum = 0.15 (at node 2)
Injected flit rate average = 0.0095
	minimum = 0.004 (at node 9)
	maximum = 0.014 (at node 2)
Accepted flit rate average= 0.009375
	minimum = 0 (at node 0)
	maximum = 0.15 (at node 2)
Injected packet length average = 1
Accepted packet length average = 1
Total in-flight flits = 4 (0 measured)
latency change    = 0.0860084
throughput change = 0.04
Warmed up ...Time used is 1500 cycles
Class 0:
Packet latency average = 20.6957
	minimum = 7
	maximum = 36
Network latency average = 20.6957
	minimum = 7
	maximum = 36
Slowest packet = 2513
Flit latency average = 20.9863
	minimum = 7
	maximum = 36
Slowest flit = 2513
Fragmentation average = 0
	minimum = 0
	maximum = 0
Injected packet rate average = 0.009
	minimum = 0.002 (at node 0)
	maximum = 0.014 (at node 4)
Accepted packet rate average = 0.009125
	minimum = 0 (at node 0)
	maximum = 0.146 (at node 2)
Injected flit rate average = 0.009
	minimum = 0.002 (at node 0)
	maximum = 0.014 (at node 4)
Accepted flit rate average= 0.009125
	minimum = 0 (at node 0)
	maximum = 0.146 (at node 2)
Injected packet length average = 1
Accepted packet length average = 1
Total in-flight flits = 3 (3 measured)
latency change    = 0.0767787
throughput change = 0.0273973
Class 0:
Packet latency average = 21.3396
	minimum = 7
	maximum = 40
Network latency average = 21.3396
	minimum = 7
	maximum = 40
Slowest packet = 2656
Flit latency average = 21.454
	minimum = 7
	maximum = 40
Slowest flit = 2656
Fragmentation average = 0
	minimum = 0
	maximum = 0
Injected packet rate average = 0.01025
	minimum = 0.005 (at node 0)
	maximum = 0.016 (at node 15)
Accepted packet rate average = 0.0101875
	minimum = 0 (at node 0)
	maximum = 0.163 (at node 2)
Injected flit rate average = 0.01025
	minimum = 0.005 (at node 0)
	maximum = 0.016 (at node 15)
Accepted flit rate average= 0.0101875
	minimum = 0 (at node 0)
	maximum = 0.163 (at node 2)
Injected packet length average = 1
Accepted packet length average = 1
Total in-flight flits = 5 (5 measured)
latency change    = 0.0301772
throughput change = 0.104294
Class 0:
Packet latency average = 20.8627
	minimum = 7
	maximum = 40
Network latency average = 20.8627
	minimum = 7
	maximum = 40
Slowest packet = 2656
Flit latency average = 20.9494
	minimum = 7
	maximum = 40
Slowest flit = 2656
Fragmentation average = 0
	minimum = 0
	maximum = 0
Injected packet rate average = 0.00979167
	minimum = 0.006 (at node 3)
	maximum = 0.0133333 (at node 9)
Accepted packet rate average = 0.009875
	minimum = 0 (at node 0)
	maximum = 0.158 (at node 2)
Injected flit rate average = 0.00979167
	minimum = 0.006 (at node 3)
	maximum = 0.0133333 (at node 9)
Accepted flit rate average= 0.009875
	minimum = 0 (at node 0)
	maximum = 0.158 (at node 2)
Injected packet length average = 1
Accepted packet length average = 1
Total in-flight flits = 2 (2 measured)
latency change    = 0.022862
throughput change = 0.0316456
Class 0:
Packet latency average = 20.6677
	minimum = 7
	maximum = 40
Network latency average = 20.6677
	minimum = 7
	maximum = 40
Slowest packet = 2656
Flit latency average = 20.7344
	minimum = 7
	maximum = 40
Slowest flit = 2656
Fragmentation average = 0
	minimum = 0
	maximum = 0
Injected packet rate average = 0.00996875
	minimum = 0.006 (at node 3)
	maximum = 0.014 (at node 10)
Accepted packet rate average = 0.01
	minimum = 0 (at node 0)
	maximum = 0.16 (at node 2)
Injected flit rate average = 0.00996875
	minimum = 0.006 (at node 3)
	maximum = 0.014 (at node 10)
Accepted flit rate average= 0.01
	minimum = 0 (at node 0)
	maximum = 0.16 (at node 2)
Injected packet length average = 1
Accepted packet length average = 1
Total in-flight flits = 3 (3 measured)
latency change    = 0.00943207
throughput change = 0.0125
Class 0:
Packet latency average = 20.7161
	minimum = 7
	maximum = 42
Network latency average = 20.7161
	minimum = 7
	maximum = 42
Slowest packet = 2896
Flit latency average = 20.7696
	minimum = 7
	maximum = 42
Slowest flit = 2896
Fragmentation average = 0
	minimum = 0
	maximum = 0
Injected packet rate average = 0.00985
	minimum = 0.006 (at node 8)
	maximum = 0.0128 (at node 10)
Accepted packet rate average = 0.009875
	minimum = 0 (at node 0)
	maximum = 0.158 (at node 2)
Injected flit rate average = 0.00985
	minimum = 0.006 (at node 8)
	maximum = 0.0128 (at node 10)
Accepted flit rate average= 0.009875
	minimum = 0 (at node 0)
	maximum = 0.158 (at node 2)
Injected packet length average = 1
Accepted packet length average = 1
Total in-flight flits = 3 (3 measured)
latency change    = 0.00233591
throughput change = 0.0126582
Draining all recorded packets ...
Draining remaining packets ...
Time taken is 4027 cycles
Class 0:
Packet latency average = 21.7753
	minimum = 7
	maximum = 44
Network latency average = 21.7753
	minimum = 7
	maximum = 44
Slowest packet = 2967
Flit latency average = 21.7753
	minimum = 7
	maximum = 44
Slowest flit = 2967
Fragmentation average = 0
	minimum = 0
	maximum = 0
Injected packet rate average = 0.01175
	minimum = 0.008 (at node 1)
	maximum = 0.022 (at node 7)
Accepted packet rate average = 0.011125
	minimum = 0 (at node 0)
	maximum = 0.178 (at node 2)
Injected flit rate average = 0.01175
	minimum = 0.008 (at node 1)
	maximum = 0.022 (at node 7)
Accepted flit rate average= 0.011125
	minimum = 0 (at node 0)
	maximum = 0.178 (at node 2)
Injected packet length average = 1
Accepted packet length average = 1
Total in-flight flits = 5 (0 measured)
latency change    = 1
throughput change = 1
Class 0:
Packet latency average = 20.8613
	minimum = 7
	maximum = 44
Network latency average = 20.8613
	minimum = 7
	maximum = 44
Slowest packet = 2967
Flit latency average = 20.8613
	minimum = 7
	maximum = 44
Slowest flit = 2967
Fragmentation average = 0
	minimum = 0
	maximum = 0
Injected packet rate average = 0.0109375
	minimum = 0.006 (at node 3)
	maximum = 0.02 (at node 7)
Accepted packet rate average = 0.0108125
	minimum = 0 (at node 0)
	maximum = 0.173 (at node 2)
Injected flit rate average = 0.0109375
	minimum = 0.006 (at node 3)
	maximum = 0.02 (at node 7)
Accepted flit rate average= 0.0108125
	minimum = 0 (at node 0)
	maximum = 0.173 (at node 2)
Injected packet length average = 1
Accepted packet length average = 1
Total in-flight flits = 2 (0 measured)
latency change    = 0.0438137
throughput change = 0.0289017
Class 0:
Packet latency average = 21.5
	minimum = 7
	maximum = 44
Network latency average = 21.5
	minimum = 7
	maximum = 44
Slowest packet = 3120
Flit latency average = 21.5
	minimum = 7
	maximum = 44
Slowest flit = 3120
Fragmentation average = 0
	minimum = 0
	maximum = 0
Injected packet rate average = 0.01025
	minimum = 0.002 (at node 0)
	maximum = 0.02 (at node 4)
Accepted packet rate average = 0.01025
	minimum = 0 (at node 0)
	maximum = 0.164 (at node 2)
Injected flit rate average = 0.01025
	minimum = 0.002 (at node 0)
	maximum = 0.02 (at node 4)
Accepted flit rate average= 0.01025
	minimum = 0 (at node 0)
	maximum = 0.164 (at node 2)
Injected packet length average = 1
Accepted packet length average = 1
Total in-flight flits = 2 (0 measured)
latency change    = 0.0297083
throughput change = 0.054878
Warmed up ...Time used is 1500 cycles
Class 0:
Packet latency average = 19.8312
	minimum = 7
	maximum = 32
Network latency average = 19.8312
	minimum = 7
	maximum = 32
Slowest packet = 3180
Flit latency average = 19.8861
	minimum = 7
	maximum = 32
Slowest flit = 3180
Fragmentation average = 0
	minimum = 0
	maximum = 0
Injected packet rate average = 0.01
	minimum = 0 (at node 0)
	maximum = 0.018 (at node 6)
Accepted packet rate average = 0.009875
	minimum = 0 (at node 0)
	maximum = 0.158 (at node 2)
Injected flit rate average = 0.01
	minimum = 0 (at node 0)
	maximum = 0.018 (at node 6)
Accepted flit rate average= 0.009875
	minimum = 0 (at node 0)
	maximum = 0.158 (at node 2)
Injected packet length average = 1
Accepted packet length average = 1
Total in-flight flits = 3 (3 measured)
latency change    = 0.0841519
throughput change = 0.0379747
Class 0:
Packet latency average = 20.4965
	minimum = 7
	maximum = 33
Network latency average = 20.4965
	minimum = 7
	maximum = 33
Slowest packet = 3273
Flit latency average = 20.5172
	minimum = 7
	maximum = 33
Slowest flit = 3273
Fragmentation average = 0
	minimum = 0
	maximum = 0
Injected packet rate average = 0.0091875
	minimum = 0.003 (at node 0)
	maximum = 0.013 (at node 5)
Accepted packet rate average = 0.0090625
	minimum = 0 (at node 0)
	maximum = 0.145 (at node 2)
Injected flit rate average = 0.0091875
	minimum = 0.003 (at node 0)
	maximum = 0.013 (at node 5)
Accepted flit rate average= 0.0090625
	minimum = 0 (at node 0)
	maximum = 0.145 (at node 2)
Injected packet length average = 1
Accepted packet length average = 1
Total in-flight flits = 4 (4 measured)
latency change    = 0.0324609
throughput change = 0.0896552
Class 0:
Packet latency average = 20.4118
	minimum = 7
	maximum = 38
Network latency average = 20.4118
	minimum = 7
	maximum = 38
Slowest packet = 3335
Flit latency average = 20.426
	minimum = 7
	maximum = 38
Slowest flit = 3335
Fragmentation average = 0
	minimum = 0
	maximum = 0
Injected packet rate average = 0.00945833
	minimum = 0.00266667 (at node 0)
	maximum = 0.0133333 (at node 13)
Accepted packet rate average = 0.00929167
	minimum = 0 (at node 0)
	maximum = 0.148667 (at node 2)
Injected flit rate average = 0.00945833
	minimum = 0.00266667 (at node 0)
	maximum = 0.0133333 (at node 13)
Accepted flit rate average= 0.00929167
	minimum = 0 (at node 0)
	maximum = 0.148667 (at node 2)
Injected packet length average = 1
Accepted packet length average = 1
Total in-flight flits = 6 (6 measured)
latency change    = 0.00415147
throughput change = 0.0246637
Class 0:
Packet latency average = 20.9531
	minimum = 7
	maximum = 56
Network latency average = 20.9531
	minimum = 7
	maximum = 56
Slowest packet = 3398
Flit latency average = 20.9596
	minimum = 7
	maximum = 56
Slowest flit = 3398
Fragmentation average = 0
	minimum = 0
	maximum = 0
Injected packet rate average = 0.0101563
	minimum = 0.005 (at node 0)
	maximum = 0.0155 (at node 13)
Accepted packet rate average = 0.0100625
	minimum = 0 (at node 0)
	maximum = 0.161 (at node 2)
Injected flit rate average = 0.0101563
	minimum = 0.005 (at node 0)
	maximum = 0.0155 (at node 13)
Accepted flit rate average= 0.0100625
	minimum = 0 (at node 0)
	maximum = 0.161 (at node 2)
Injected packet length average = 1
Accepted packet length average = 1
Total in-flight flits = 5 (5 measured)
latency change    = 0.0258367
throughput change = 0.0766046
Class 0:
Packet latency average = 20.6526
	minimum = 7
	maximum = 56
Network latency average = 20.6526
	minimum = 7
	maximum = 56
Slowest packet = 3398
Flit latency average = 20.6593
	minimum = 7
	maximum = 56
Slowest flit = 3398
Fragmentation average = 0
	minimum = 0
	maximum = 0
Injected packet rate average = 0.010075
	minimum = 0.0064 (at node 0)
	maximum = 0.0136 (at node 13)
Accepted packet rate average = 0.010125
	minimum = 0 (at node 0)
	maximum = 0.162 (at node 2)
Injected flit rate average = 0.010075
	minimum = 0.0064 (at node 0)
	maximum = 0.0136 (at node 13)
Accepted flit rate average= 0.010125
	minimum = 0 (at node 0)
	maximum = 0.162 (at node 2)
Injected packet length average = 1
Accepted packet length average = 1
Total in-flight flits = 0 (0 measured)
latency change    = 0.0145512
throughput change = 0.00617284
Class 0:
Packet latency average = 20.5146
	minimum = 7
	maximum = 56
Network latency average = 20.5146
	minimum = 7
	maximum = 56
Slowest packet = 3398
Flit latency average = 20.5208
	minimum = 7
	maximum = 56
Slowest flit = 3398
Fragmentation average = 0
	minimum = 0
	maximum = 0
Injected packet rate average = 0.0100208
	minimum = 0.00533333 (at node 14)
	maximum = 0.0123333 (at node 13)
Accepted packet rate average = 0.01
	minimum = 0 (at node 0)
	maximum = 0.16 (at node 2)
Injected flit rate average = 0.0100208
	minimum = 0.00533333 (at node 14)
	maximum = 0.0123333 (at node 13)
Accepted flit rate average= 0.01
	minimum = 0 (at node 0)
	maximum = 0.16 (at node 2)
Injected packet length average = 1
Accepted packet length average = 1
Total in-flight flits = 3 (3 measured)
latency change    = 0.00672501
throughput change = 0.0125
Class 0:
Packet latency average = 20.4135
	minimum = 7
	maximum = 56
Network latency average = 20.4135
	minimum = 7
	maximum = 56
Slowest packet = 3398
Flit latency average = 20.4192
	minimum = 7
	maximum = 56
Slowest flit = 3398
Fragmentation average = 0
	minimum = 0
	maximum = 0
Injected packet rate average = 0.0100714
	minimum = 0.00685714 (at node 14)
	maximum = 0.0125714 (at node 13)
Accepted packet rate average = 0.0100536
	minimum = 0 (at node 0)
	maximum = 0.160857 (at node 2)
Injected flit rate average = 0.0100714
	minimum = 0.00685714 (at node 14)
	maximum = 0.0125714 (at node 13)
Accepted flit rate average= 0.0100536
	minimum = 0 (at node 0)
	maximum = 0.160857 (at node 2)
Injected packet length average = 1
Accepted packet length average = 1
Total in-flight flits = 3 (3 measured)
latency change    = 0.00495245
throughput change = 0.0053286
Draining all recorded packets ...
Draining remaining packets ...
Time taken is 5041 cycles
Class 0:
Packet latency average = 21.0875
	minimum = 7
	maximum = 41
Network latency average = 21.0875
	minimum = 7
	maximum = 41
Slowest packet = 3773
Flit latency average = 21.0875
	minimum = 7
	maximum = 41
Slowest flit = 3773
Fragmentation average = 0
	minimum = 0
	maximum = 0
Injected packet rate average = 0.010125
	minimum = 0.004 (at node 5)
	maximum = 0.02 (at node 8)
Accepted packet rate average = 0.01
	minimum = 0 (at node 0)
	maximum = 0.16 (at node 2)
Injected flit rate average = 0.010125
	minimum = 0.004 (at node 5)
	maximum = 0.02 (at node 8)
Accepted flit rate average= 0.01
	minimum = 0 (at node 0)
	maximum = 0.16 (at node 2)
Injected packet length average = 1
Accepted packet length average = 1
Total in-flight flits = 1 (0 measured)
latency change    = 1
throughput change = 1
Class 0:
Packet latency average = 20.5871
	minimum = 7
	maximum = 41
Network latency average = 20.5871
	minimum = 7
	maximum = 41
Slowest packet = 3773
Flit latency average = 20.5871
	minimum = 7
	maximum = 41
Slowest flit = 3773
Fragmentation average = 0
	minimum = 0
	maximum = 0
Injected packet rate average = 0.009875
	minimum = 0.003 (at node 9)
	maximum = 0.014 (at node 1)
Accepted packet rate average = 0.0096875
	minimum = 0 (at node 0)
	maximum = 0.155 (at node 2)
Injected flit rate average = 0.009875
	minimum = 0.003 (at node 9)
	maximum = 0.014 (at node 1)
Accepted flit rate average= 0.0096875
	minimum = 0 (at node 0)
	maximum = 0.155 (at node 2)
Injected packet length average = 1
Accepted packet length average = 1
Total in-flight flits = 3 (0 measured)
latency change    = 0.0243066
throughput change = 0.0322581
Class 0:
Packet latency average = 20.5342
	minimum = 7
	maximum = 49
Network latency average = 20.5342
	minimum = 7
	maximum = 49
Slowest packet = 3916
Flit latency average = 20.5342
	minimum = 7
	maximum = 49
Slowest flit = 3916
Fragmentation average = 0
	minimum = 0
	maximum = 0
Injected packet rate average = 0.008875
	minimum = 0.004 (at node 8)
	maximum = 0.016 (at node 5)
Accepted packet rate average = 0.009125
	minimum = 0 (at node 0)
	maximum = 0.146 (at node 2)
Injected flit rate average = 0.008875
	minimum = 0.004 (at node 8)
	maximum = 0.016 (at node 5)
Accepted flit rate average= 0.009125
	minimum = 0 (at node 0)
	maximum = 0.146 (at node 2)
Injected packet length average = 1
Accepted packet length average = 1
Total in-flight flits = 1 (0 measured)
latency change    = 0.00257376
throughput change = 0.0616438
Warmed up ...Time used is 1500 cycles
Class 0:
Packet latency average = 19.3134
	minimum = 7
	maximum = 39
Network latency average = 19.3134
	minimum = 7
	maximum = 39
Slowest packet = 4001
Flit latency average = 19.3529
	minimum = 7
	maximum = 39
Slowest flit = 4001
Fragmentation average = 0
	minimum = 0
	maximum = 0
Injected packet rate average = 0.0085
	minimum = 0.002 (at node 15)
	maximum = 0.018 (at node 10)
Accepted packet rate average = 0.0085
	minimum = 0 (at node 0)
	maximum = 0.136 (at node 2)
Injected flit rate average = 0.0085
	minimum = 0.002 (at node 15)
	maximum = 0.018 (at node 10)
Accepted flit rate average= 0.0085
	minimum = 0 (at node 0)
	maximum = 0.136 (at node 2)
Injected packet length average = 1
Accepted packet length average = 1
Total in-flight flits = 1 (1 measured)
latency change    = 0.0632106
throughput change = 0.0735294
Class 0:
Packet latency average = 19.6738
	minimum = 7
	maximum = 42
Network latency average = 19.6738
	minimum = 7
	maximum = 42
Slowest packet = 4048
Flit latency average = 19.6901
	minimum = 7
	maximum = 42
Slowest flit = 4048
Fragmentation average = 0
	minimum = 0
	maximum = 0
Injected packet rate average = 0.00925
	minimum = 0.005 (at node 2)
	maximum = 0.018 (at node 10)
Accepted packet rate average = 0.008875
	minimum = 0 (at node 0)
	maximum = 0.142 (at node 2)
Injected flit rate average = 0.00925
	minimum = 0.005 (at node 2)
	maximum = 0.018 (at node 10)
Accepted flit rate average= 0.008875
	minimum = 0 (at node 0)
	maximum = 0.142 (at node 2)
Injected packet length average = 1
Accepted packet length average = 1
Total in-flight flits = 7 (7 measured)
latency change    = 0.0183151
throughput change = 0.0422535
Class 0:
Packet latency average = 19.4357
	minimum = 7
	maximum = 42
Network latency average = 19.4357
	minimum = 7
	maximum = 42
Slowest packet = 4048
Flit latency average = 19.4463
	minimum = 7
	maximum = 42
Slowest flit = 4048
Fragmentation average = 0
	minimum = 0
	maximum = 0
Injected packet rate average = 0.010125
	minimum = 0.006 (at node 15)
	maximum = 0.0166667 (at node 10)
Accepted packet rate average = 0.0100833
	minimum = 0 (at node 0)
	maximum = 0.161333 (at node 2)
Injected flit rate average = 0.010125
	minimum = 0.006 (at node 15)
	maximum = 0.0166667 (at node 10)
Accepted flit rate average= 0.0100833
	minimum = 0 (at node 0)
	maximum = 0.161333 (at node 2)
Injected packet length average = 1
Accepted packet length average = 1
Total in-flight flits = 2 (2 measured)
latency change    = 0.0122493
throughput change = 0.119835
Class 0:
Packet latency average = 19.3495
	minimum = 7
	maximum = 42
Network latency average = 19.3495
	minimum = 7
	maximum = 42
Slowest packet = 4048
Flit latency average = 19.3576
	minimum = 7
	maximum = 42
Slowest flit = 4048
Fragmentation average = 0
	minimum = 0
	maximum = 0
Injected packet rate average = 0.0104375
	minimum = 0.006 (at node 15)
	maximum = 0.017 (at node 7)
Accepted packet rate average = 0.0103125
	minimum = 0 (at node 0)
	maximum = 0.165 (at node 2)
Injected flit rate average = 0.0104375
	minimum = 0.006 (at node 15)
	maximum = 0.017 (at node 7)
Accepted flit rate average= 0.0103125
	minimum = 0 (at node 0)
	maximum = 0.165 (at node 2)
Injected packet length average = 1
Accepted packet length average = 1
Total in-flight flits = 5 (5 measured)
latency change    = 0.00445181
throughput change = 0.0222222
Class 0:
Packet latency average = 20.0591
	minimum = 7
	maximum = 43
Network latency average = 20.0591
	minimum = 7
	maximum = 43
Slowest packet = 4369
Flit latency average = 20.0637
	minimum = 7
	maximum = 43
Slowest flit = 4369
Fragmentation average = 0
	minimum = 0
	maximum = 0
Injected packet rate average = 0.010675
	minimum = 0.0076 (at node 4)
	maximum = 0.0164 (at node 7)
Accepted packet rate average = 0.0106
	minimum = 0 (at node 0)
	maximum = 0.1696 (at node 2)
Injected flit rate average = 0.010675
	minimum = 0.0076 (at node 4)
	maximum = 0.0164 (at node 7)
Accepted flit rate average= 0.0106
	minimum = 0 (at node 0)
	maximum = 0.1696 (at node 2)
Injected packet length average = 1
Accepted packet length average = 1
Total in-flight flits = 4 (4 measured)
latency change    = 0.0353733
throughput change = 0.0271226
Class 0:
Packet latency average = 20.1795
	minimum = 7
	maximum = 43
Network latency average = 20.1795
	minimum = 7
	maximum = 43
Slowest packet = 4369
Flit latency average = 20.1831
	minimum = 7
	maximum = 43
Slowest flit = 4369
Fragmentation average = 0
	minimum = 0
	maximum = 0
Injected packet rate average = 0.0106042
	minimum = 0.00733333 (at node 0)
	maximum = 0.0156667 (at node 7)
Accepted packet rate average = 0.0105833
	minimum = 0 (at node 0)
	maximum = 0.169333 (at node 2)
Injected flit rate average = 0.0106042
	minimum = 0.00733333 (at node 0)
	maximum = 0.0156667 (at node 7)
Accepted flit rate average= 0.0105833
	minimum = 0 (at node 0)
	maximum = 0.169333 (at node 2)
Injected packet length average = 1
Accepted packet length average = 1
Total in-flight flits = 2 (2 measured)
latency change    = 0.00596574
throughput change = 0.0015748
Draining all recorded packets ...
Draining remaining packets ...
Time taken is 4543 cycles
Class 0:
Packet latency average = 18.6714
	minimum = 7
	maximum = 33
Network latency average = 18.6714
	minimum = 7
	maximum = 33
Slowest packet = 4531
Flit latency average = 18.6714
	minimum = 7
	maximum = 33
Slowest flit = 4531
Fragmentation average = 0
	minimum = 0
	maximum = 0
Injected packet rate average = 0.009125
	minimum = 0.004 (at node 5)
	maximum = 0.018 (at node 10)
Accepted packet rate average = 0.00875
	minimum = 0 (at node 0)
	maximum = 0.14 (at node 2)
Injected flit rate average = 0.009125
	minimum = 0.004 (at node 5)
	maximum = 0.018 (at node 10)
Accepted flit rate average= 0.00875
	minimum = 0 (at node 0)
	maximum = 0.14 (at node 2)
Injected packet length average = 1
Accepted packet length average = 1
Total in-flight flits = 3 (0 measured)
latency change    = 1
throughput change = 1
Class 0:
Packet latency average = 19.8041
	minimum = 7
	maximum = 34
Network latency average = 19.8041
	minimum = 7
	maximum = 34
Slowest packet = 4611
Flit latency average = 19.8041
	minimum = 7
	maximum = 34
Slowest flit = 4611
Fragmentation average = 0
	minimum = 0
	maximum = 0
Injected packet rate average = 0.0094375
	minimum = 0.003 (at node 5)
	maximum = 0.015 (at node 9)
Accepted packet rate average = 0.00925
	minimum = 0 (at node 0)
	maximum = 0.148 (at node 2)
Injected flit rate average = 0.0094375
	minimum = 0.003 (at node 5)
	maximum = 0.015 (at node 9)
Accepted flit rate average= 0.00925
	minimum = 0 (at node 0)
	maximum = 0.148 (at node 2)
Injected packet length average = 1
Accepted packet length average = 1
Total in-flight flits = 3 (0 measured)
latency change    = 0.0571916
throughput change = 0.0540541
Class 0:
Packet latency average = 22.3837
	minimum = 7
	maximum = 73
Network latency average = 22.3837
	minimum = 7
	maximum = 73
Slowest packet = 4666
Flit latency average = 22.3837
	minimum = 7
	maximum = 73
Slowest flit = 4666
Fragmentation average = 0
	minimum = 0
	maximum = 0
Injected packet rate average = 0.01075
	minimum = 0.004 (at node 9)
	maximum = 0.022 (at node 6)
Accepted packet rate average = 0.01075
	minimum = 0 (at node 0)
	maximum = 0.172 (at node 2)
Injected flit rate average = 0.01075
	minimum = 0.004 (at node 9)
	maximum = 0.022 (at node 6)
Accepted flit rate average= 0.01075
	minimum = 0 (at node 0)
	maximum = 0.172 (at node 2)
Injected packet length average = 1
Accepted packet length average = 1
Total in-flight flits = 3 (0 measured)
latency change    = 0.115247
throughput change = 0.139535
Warmed up ...Time used is 1500 cycles
Class 0:
Packet latency average = 21.2469
	minimum = 7
	maximum = 36
Network latency average = 21.2469
	minimum = 7
	maximum = 36
Slowest packet = 4728
Flit latency average = 21.2738
	minimum = 7
	maximum = 36
Slowest flit = 4728
Fragmentation average = 0
	minimum = 0
	maximum = 0
Injected packet rate average = 0.010375
	minimum = 0.002 (at node 6)
	maximum = 0.016 (at node 14)
Accepted packet rate average = 0.0105
	minimum = 0 (at node 0)
	maximum = 0.168 (at node 2)
Injected flit rate average = 0.010375
	minimum = 0.002 (at node 6)
	maximum = 0.016 (at node 14)
Accepted flit rate average= 0.0105
	minimum = 0 (at node 0)
	maximum = 0.168 (at node 2)
Injected packet length average = 1
Accepted packet length average = 1
Total in-flight flits = 2 (2 measured)
latency change    = 0.0535046
throughput change = 0.0238095
Class 0:
Packet latency average = 20.7211
	minimum = 7
	maximum = 41
Network latency average = 20.7211
	minimum = 7
	maximum = 41
Slowest packet = 4867
Flit latency average = 20.7409
	minimum = 7
	maximum = 41
Slowest flit = 4867
Fragmentation average = 0
	minimum = 0
	maximum = 0
Injected packet rate average = 0.0119375
	minimum = 0.008 (at node 1)
	maximum = 0.017 (at node 3)
Accepted packet rate average = 0.0120625
	minimum = 0 (at node 0)
	maximum = 0.193 (at node 2)
Injected flit rate average = 0.0119375
	minimum = 0.008 (at node 1)
	maximum = 0.017 (at node 3)
Accepted flit rate average= 0.0120625
	minimum = 0 (at node 0)
	maximum = 0.193 (at node 2)
Injected packet length average = 1
Accepted packet length average = 1
Total in-flight flits = 1 (1 measured)
latency change    = 0.0253781
throughput change = 0.129534
Class 0:
Packet latency average = 20.4536
	minimum = 7
	maximum = 45
Network latency average = 20.4536
	minimum = 7
	maximum = 45
Slowest packet = 4940
Flit latency average = 20.47
	minimum = 7
	maximum = 45
Slowest flit = 4940
Fragmentation average = 0
	minimum = 0
	maximum = 0
Injected packet rate average = 0.0119167
	minimum = 0.00866667 (at node 1)
	maximum = 0.016 (at node 8)
Accepted packet rate average = 0.0117917
	minimum = 0 (at node 0)
	maximum = 0.188667 (at node 2)
Injected flit rate average = 0.0119167
	minimum = 0.00866667 (at node 1)
	maximum = 0.016 (at node 8)
Accepted flit rate average= 0.0117917
	minimum = 0 (at node 0)
	maximum = 0.188667 (at node 2)
Injected packet length average = 1
Accepted packet length average = 1
Total in-flight flits = 6 (6 measured)
latency change    = 0.0130775
throughput change = 0.0229682
Class 0:
Packet latency average = 20.5912
	minimum = 7
	maximum = 45
Network latency average = 20.5912
	minimum = 7
	maximum = 45
Slowest packet = 4940
Flit latency average = 20.6027
	minimum = 7
	maximum = 45
Slowest flit = 4940
Fragmentation average = 0
	minimum = 0
	maximum = 0
Injected packet rate average = 0.0114375
	minimum = 0.0075 (at node 5)
	maximum = 0.014 (at node 8)
Accepted packet rate average = 0.0114062
	minimum = 0 (at node 0)
	maximum = 0.1825 (at node 2)
Injected flit rate average = 0.0114375
	minimum = 0.0075 (at node 5)
	maximum = 0.014 (at node 8)
Accepted flit rate average= 0.0114062
	minimum = 0 (at node 0)
	maximum = 0.1825 (at node 2)
Injected packet length average = 1
Accepted packet length average = 1
Total in-flight flits = 4 (4 measured)
latency change    = 0.00668193
throughput change = 0.03379
Class 0:
Packet latency average = 20.5531
	minimum = 7
	maximum = 45
Network latency average = 20.5531
	minimum = 7
	maximum = 45
Slowest packet = 4940
Flit latency average = 20.5626
	minimum = 7
	maximum = 45
Slowest flit = 4940
Fragmentation average = 0
	minimum = 0
	maximum = 0
Injected packet rate average = 0.0114
	minimum = 0.0088 (at node 5)
	maximum = 0.0128 (at node 8)
Accepted packet rate average = 0.011375
	minimum = 0 (at node 0)
	maximum = 0.182 (at node 2)
Injected flit rate average = 0.0114
	minimum = 0.0088 (at node 5)
	maximum = 0.0128 (at node 8)
Accepted flit rate average= 0.011375
	minimum = 0 (at node 0)
	maximum = 0.182 (at node 2)
Injected packet length average = 1
Accepted packet length average = 1
Total in-flight flits = 4 (4 measured)
latency change    = 0.00185193
throughput change = 0.00274725
Draining all recorded packets ...
Draining remaining packets ...
Time taken is 4029 cycles
Class 0:
Packet latency average = 21.2195
	minimum = 7
	maximum = 34
Network latency average = 21.2195
	minimum = 7
	maximum = 34
Slowest packet = 5194
Flit latency average = 21.2195
	minimum = 7
	maximum = 34
Slowest flit = 5194
Fragmentation average = 0
	minimum = 0
	maximum = 0
Injected packet rate average = 0.010625
	minimum = 0.002 (at node 4)
	maximum = 0.022 (at node 12)
Accepted packet rate average = 0.01025
	minimum = 0 (at node 0)
	maximum = 0.164 (at node 2)
Injected flit rate average = 0.010625
	minimum = 0.002 (at node 4)
	maximum = 0.022 (at node 12)
Accepted flit rate average= 0.01025
	minimum = 0 (at node 0)
	maximum = 0.164 (at node 2)
Injected packet length average = 1
Accepted packet length average = 1
Total in-flight flits = 3 (0 measured)
latency change    = 1
throughput change = 1
Class 0:
Packet latency average = 20.3106
	minimum = 7
	maximum = 39
Network latency average = 20.3106
	minimum = 7
	maximum = 39
Slowest packet = 5296
Flit latency average = 20.3106
	minimum = 7
	maximum = 39
Slowest flit = 5296
Fragmentation average = 0
	minimum = 0
	maximum = 0
Injected packet rate average = 0.010125
	minimum = 0.005 (at node 4)
	maximum = 0.015 (at node 13)
Accepted packet rate average = 0.0100625
	minimum = 0 (at node 0)
	maximum = 0.161 (at node 2)
Injected flit rate average = 0.010125
	minimum = 0.005 (at node 4)
	maximum = 0.015 (at node 13)
Accepted flit rate average= 0.0100625
	minimum = 0 (at node 0)
	maximum = 0.161 (at node 2)
Injected packet length average = 1
Accepted packet length average = 1
Total in-flight flits = 1 (0 measured)
latency change    = 0.0447527
throughput change = 0.0186335
Class 0:
Packet latency average = 20.0581
	minimum = 7
	maximum = 41
Network latency average = 20.0581
	minimum = 7
	maximum = 41
Slowest packet = 5364
Flit latency average = 20.0581
	minimum = 7
	maximum = 41
Slowest flit = 5364
Fragmentation average = 0
	minimum = 0
	maximum = 0
Injected packet rate average = 0.011125
	minimum = 0.002 (at node 0)
	maximum = 0.02 (at node 12)
Accepted packet rate average = 0.01075
	minimum = 0 (at node 0)
	maximum = 0.172 (at node 2)
Injected flit rate average = 0.011125
	minimum = 0.002 (at node 0)
	maximum = 0.02 (at node 12)
Accepted flit rate average= 0.01075
	minimum = 0 (at node 0)
	maximum = 0.172 (at node 2)
Injected packet length average = 1
Accepted packet length average = 1
Total in-flight flits = 4 (0 measured)
latency change    = 0.0125844
throughput change = 0.0639535
Warmed up ...Time used is 1500 cycles
Class 0:
Packet latency average = 21.2169
	minimum = 7
	maximum = 39
Network latency average = 21.2169
	minimum = 7
	maximum = 39
Slowest packet = 5463
Flit latency average = 21.4828
	minimum = 7
	maximum = 39
Slowest flit = 5463
Fragmentation average = 0
	minimum = 0
	maximum = 0
Injected packet rate average = 0.01075
	minimum = 0.004 (at node 10)
	maximum = 0.02 (at node 11)
Accepted packet rate average = 0.010875
	minimum = 0 (at node 0)
	maximum = 0.174 (at node 2)
Injected flit rate average = 0.01075
	minimum = 0.004 (at node 10)
	maximum = 0.02 (at node 11)
Accepted flit rate average= 0.010875
	minimum = 0 (at node 0)
	maximum = 0.174 (at node 2)
Injected packet length average = 1
Accepted packet length average = 1
Total in-flight flits = 3 (3 measured)
latency change    = 0.0546135
throughput change = 0.0114943
Class 0:
Packet latency average = 20.9353
	minimum = 7
	maximum = 39
Network latency average = 20.9353
	minimum = 7
	maximum = 39
Slowest packet = 5463
Flit latency average = 21.0747
	minimum = 7
	maximum = 39
Slowest flit = 5463
Fragmentation average = 0
	minimum = 0
	maximum = 0
Injected packet rate average = 0.01075
	minimum = 0.005 (at node 10)
	maximum = 0.016 (at node 11)
Accepted packet rate average = 0.010875
	minimum = 0 (at node 0)
	maximum = 0.174 (at node 2)
Injected flit rate average = 0.01075
	minimum = 0.005 (at node 10)
	maximum = 0.016 (at node 11)
Accepted flit rate average= 0.010875
	minimum = 0 (at node 0)
	maximum = 0.174 (at node 2)
Injected packet length average = 1
Accepted packet length average = 1
Total in-flight flits = 2 (2 measured)
latency change    = 0.0134497
throughput change = 0
Class 0:
Packet latency average = 20.4553
	minimum = 7
	maximum = 39
Network latency average = 20.4553
	minimum = 7
	maximum = 39
Slowest packet = 5463
Flit latency average = 20.56
	minimum = 7
	maximum = 39
Slowest flit = 5463
Fragmentation average = 0
	minimum = 0
	maximum = 0
Injected packet rate average = 0.0104583
	minimum = 0.00466667 (at node 10)
	maximum = 0.014 (at node 7)
Accepted packet rate average = 0.0104167
	minimum = 0 (at node 0)
	maximum = 0.166667 (at node 2)
Injected flit rate average = 0.0104583
	minimum = 0.00466667 (at node 10)
	maximum = 0.014 (at node 7)
Accepted flit rate average= 0.0104167
	minimum = 0 (at node 0)
	maximum = 0.166667 (at node 2)
Injected packet length average = 1
Accepted packet length average = 1
Total in-flight flits = 5 (5 measured)
latency change    = 0.0234663
throughput change = 0.044
Class 0:
Packet latency average = 20.1469
	minimum = 7
	maximum = 39
Network latency average = 20.1469
	minimum = 7
	maximum = 39
Slowest packet = 5463
Flit latency average = 20.2315
	minimum = 7
	maximum = 39
Slowest flit = 5463
Fragmentation average = 0
	minimum = 0
	maximum = 0
Injected packet rate average = 0.0102188
	minimum = 0.0075 (at node 10)
	maximum = 0.0145 (at node 7)
Accepted packet rate average = 0.010125
	minimum = 0 (at node 0)
	maximum = 0.162 (at node 2)
Injected flit rate average = 0.0102188
	minimum = 0.0075 (at node 10)
	maximum = 0.0145 (at node 7)
Accepted flit rate average= 0.010125
	minimum = 0 (at node 0)
	maximum = 0.162 (at node 2)
Injected packet length average = 1
Accepted packet length average = 1
Total in-flight flits = 7 (7 measured)
latency change    = 0.0153081
throughput change = 0.0288066
Draining all recorded packets ...
Draining remaining packets ...
Time taken is 3536 cycles
Class 0:
Packet latency average = 19.3125
	minimum = 7
	maximum = 42
Network latency average = 19.3125
	minimum = 7
	maximum = 42
Slowest packet = 5801
Flit latency average = 19.3125
	minimum = 7
	maximum = 42
Slowest flit = 5801
Fragmentation average = 0
	minimum = 0
	maximum = 0
Injected packet rate average = 0.010375
	minimum = 0.004 (at node 11)
	maximum = 0.018 (at node 8)
Accepted packet rate average = 0.01
	minimum = 0 (at node 0)
	maximum = 0.16 (at node 2)
Injected flit rate average = 0.010375
	minimum = 0.004 (at node 11)
	maximum = 0.018 (at node 8)
Accepted flit rate average= 0.01
	minimum = 0 (at node 0)
	maximum = 0.16 (at node 2)
Injected packet length average = 1
Accepted packet length average = 1
Total in-flight flits = 3 (0 measured)
latency change    = 1
throughput change = 1
Class 0:
Packet latency average = 20.6
	minimum = 7
	maximum = 42
Network latency average = 20.6
	minimum = 7
	maximum = 42
Slowest packet = 5801
Flit latency average = 20.6
	minimum = 7
	maximum = 42
Slowest flit = 5801
Fragmentation average = 0
	minimum = 0
	maximum = 0
Injected packet rate average = 0.01025
	minimum = 0.006 (at node 4)
	maximum = 0.016 (at node 8)
Accepted packet rate average = 0.01
	minimum = 0 (at node 0)
	maximum = 0.16 (at node 2)
Injected flit rate average = 0.01025
	minimum = 0.006 (at node 4)
	maximum = 0.016 (at node 8)
Accepted flit rate average= 0.01
	minimum = 0 (at node 0)
	maximum = 0.16 (at node 2)
Injected packet length average = 1
Accepted packet length average = 1
Total in-flight flits = 4 (0 measured)
latency change    = 0.0625
throughput change = 0
Class 0:
Packet latency average = 20.24
	minimum = 7
	maximum = 32
Network latency average = 20.24
	minimum = 7
	maximum = 32
Slowest packet = 5911
Flit latency average = 20.24
	minimum = 7
	maximum = 32
Slowest flit = 5911
Fragmentation average = 0
	minimum = 0
	maximum = 0
Injected packet rate average = 0.00925
	minimum = 0.002 (at node 13)
	maximum = 0.02 (at node 14)
Accepted packet rate average = 0.009375
	minimum = 0 (at node 0)
	maximum = 0.15 (at node 2)
Injected flit rate average = 0.00925
	minimum = 0.002 (at node 13)
	maximum = 0.02 (at node 14)
Accepted flit rate average= 0.009375
	minimum = 0 (at node 0)
	maximum = 0.15 (at node 2)
Injected packet length average = 1
Accepted packet length average = 1
Total in-flight flits = 3 (0 measured)
latency change    = 0.0177866
throughput change = 0.0666667
Warmed up ...Time used is 1500 cycles
Class 0:
Packet latency average = 18.0625
	minimum = 7
	maximum = 37
Network latency average = 18.0625
	minimum = 7
	maximum = 37
Slowest packet = 6026
Flit latency average = 18.3134
	minimum = 7
	maximum = 37
Slowest flit = 6026
Fragmentation average = 0
	minimum = 0
	maximum = 0
Injected packet rate average = 0.008125
	minimum = 0 (at node 3)
	maximum = 0.02 (at node 2)
Accepted packet rate average = 0.008375
	minimum = 0 (at node 0)
	maximum = 0.134 (at node 2)
Injected flit rate average = 0.008125
	minimum = 0 (at node 3)
	maximum = 0.02 (at node 2)
Accepted flit rate average= 0.008375
	minimum = 0 (at node 0)
	maximum = 0.134 (at node 2)
Injected packet length average = 1
Accepted packet length average = 1
Total in-flight flits = 1 (1 measured)
latency change    = 0.120554
throughput change = 0.119403
Class 0:
Packet latency average = 18.7943
	minimum = 7
	maximum = 37
Network latency average = 18.7943
	minimum = 7
	maximum = 37
Slowest packet = 6026
Flit latency average = 18.8958
	minimum = 7
	maximum = 37
Slowest flit = 6026
Fragmentation average = 0
	minimum = 0
	maximum = 0
Injected packet rate average = 0.008875
	minimum = 0.004 (at node 4)
	maximum = 0.017 (at node 1)
Accepted packet rate average = 0.009
	minimum = 0 (at node 0)
	maximum = 0.144 (at node 2)
Injected flit rate average = 0.008875
	minimum = 0.004 (at node 4)
	maximum = 0.017 (at node 1)
Accepted flit rate average= 0.009
	minimum = 0 (at node 0)
	maximum = 0.144 (at node 2)
Injected packet length average = 1
Accepted packet length average = 1
Total in-flight flits = 1 (1 measured)
latency change    = 0.0389387
throughput change = 0.0694444
Class 0:
Packet latency average = 19.4737
	minimum = 7
	maximum = 37
Network latency average = 19.4737
	minimum = 7
	maximum = 37
Slowest packet = 6026
Flit latency average = 19.5281
	minimum = 7
	maximum = 37
Slowest flit = 6026
Fragmentation average = 0
	minimum = 0
	maximum = 0
Injected packet rate average = 0.00966667
	minimum = 0.00666667 (at node 4)
	maximum = 0.0133333 (at node 1)
Accepted packet rate average = 0.009625
	minimum = 0 (at node 0)
	maximum = 0.154 (at node 2)
Injected flit rate average = 0.00966667
	minimum = 0.00666667 (at node 4)
	maximum = 0.0133333 (at node 1)
Accepted flit rate average= 0.009625
	minimum = 0 (at node 0)
	maximum = 0.154 (at node 2)
Injected packet length average = 1
Accepted packet length average = 1
Total in-flight flits = 4 (4 measured)
latency change    = 0.0348859
throughput change = 0.0649351
Class 0:
Packet latency average = 19.7843
	minimum = 7
	maximum = 47
Network latency average = 19.7843
	minimum = 7
	maximum = 47
Slowest packet = 6261
Flit latency average = 19.822
	minimum = 7
	maximum = 47
Slowest flit = 6261
Fragmentation average = 0
	minimum = 0
	maximum = 0
Injected packet rate average = 0.009625
	minimum = 0.007 (at node 4)
	maximum = 0.013 (at node 1)
Accepted packet rate average = 0.00965625
	minimum = 0 (at node 0)
	maximum = 0.1545 (at node 2)
Injected flit rate average = 0.009625
	minimum = 0.007 (at node 4)
	maximum = 0.013 (at node 1)
Accepted flit rate average= 0.00965625
	minimum = 0 (at node 0)
	maximum = 0.1545 (at node 2)
Injected packet length average = 1
Accepted packet length average = 1
Total in-flight flits = 2 (2 measured)
latency change    = 0.0157008
throughput change = 0.00323625
Class 0:
Packet latency average = 19.8906
	minimum = 7
	maximum = 47
Network latency average = 19.8906
	minimum = 7
	maximum = 47
Slowest packet = 6261
Flit latency average = 19.9199
	minimum = 7
	maximum = 47
Slowest flit = 6261
Fragmentation average = 0
	minimum = 0
	maximum = 0
Injected packet rate average = 0.009725
	minimum = 0.0076 (at node 4)
	maximum = 0.0124 (at node 1)
Accepted packet rate average = 0.009675
	minimum = 0 (at node 0)
	maximum = 0.1548 (at node 2)
Injected flit rate average = 0.009725
	minimum = 0.0076 (at node 4)
	maximum = 0.0124 (at node 1)
Accepted flit rate average= 0.009675
	minimum = 0 (at node 0)
	maximum = 0.1548 (at node 2)
Injected packet length average = 1
Accepted packet length average = 1
Total in-flight flits = 5 (5 measured)
latency change    = 0.00534479
throughput change = 0.00193798
Class 0:
Packet latency average = 19.962
	minimum = 7
	maximum = 47
Network latency average = 19.962
	minimum = 7
	maximum = 47
Slowest packet = 6261
Flit latency average = 19.9867
	minimum = 7
	maximum = 47
Slowest flit = 6261
Fragmentation average = 0
	minimum = 0
	maximum = 0
Injected packet rate average = 0.00939583
	minimum = 0.00666667 (at node 13)
	maximum = 0.0123333 (at node 1)
Accepted packet rate average = 0.009375
	minimum = 0 (at node 0)
	maximum = 0.15 (at node 2)
Injected flit rate average = 0.00939583
	minimum = 0.00666667 (at node 13)
	maximum = 0.0123333 (at node 1)
Accepted flit rate average= 0.009375
	minimum = 0 (at node 0)
	maximum = 0.15 (at node 2)
Injected packet length average = 1
Accepted packet length average = 1
Total in-flight flits = 4 (4 measured)
latency change    = 0.00357398
throughput change = 0.032
Draining all recorded packets ...
Draining remaining packets ...
Time taken is 4526 cycles
Class 0:
Packet latency average = 18.4648
	minimum = 7
	maximum = 32
Network latency average = 18.4648
	minimum = 7
	maximum = 32
Slowest packet = 6492
Flit latency average = 18.4648
	minimum = 7
	maximum = 32
Slowest flit = 6492
Fragmentation average = 0
	minimum = 0
	maximum = 0
Injected packet rate average = 0.009
	minimum = 0 (at node 15)
	maximum = 0.016 (at node 0)
Accepted packet rate average = 0.008875
	minimum = 0 (at node 0)
	maximum = 0.142 (at node 2)
Injected flit rate average = 0.009
	minimum = 0 (at node 15)
	maximum = 0.016 (at node 0)
Accepted flit rate average= 0.008875
	minimum = 0 (at node 0)
	maximum = 0.142 (at node 2)
Injected packet length average = 1
Accepted packet length average = 1
Total in-flight flits = 1 (0 measured)
latency change    = 1
throughput change = 1
Class 0:
Packet latency average = 18.4901
	minimum = 7
	maximum = 32
Network latency average = 18.4901
	minimum = 7
	maximum = 32
Slowest packet = 6492
Flit latency average = 18.4901
	minimum = 7
	maximum = 32
Slowest flit = 6492
Fragmentation average = 0
	minimum = 0
	maximum = 0
Injected packet rate average = 0.009875
	minimum = 0.004 (at node 12)
	maximum = 0.013 (at node 1)
Accepted packet rate average = 0.0094375
	minimum = 0 (at node 0)
	maximum = 0.151 (at node 2)
Injected flit rate average = 0.009875
	minimum = 0.004 (at node 12)
	maximum = 0.013 (at node 1)
Accepted flit rate average= 0.0094375
	minimum = 0 (at node 0)
	maximum = 0.151 (at node 2)
Injected packet length average = 1
Accepted packet length average = 1
Total in-flight flits = 7 (0 measured)
latency change    = 0.00136709
throughput change = 0.0596026
Class 0:
Packet latency average = 20.7284
	minimum = 7
	maximum = 51
Network latency average = 20.7284
	minimum = 7
	maximum = 51
Slowest packet = 6589
Flit latency average = 20.7284
	minimum = 7
	maximum = 51
Slowest flit = 6589
Fragmentation average = 0
	minimum = 0
	maximum = 0
Injected packet rate average = 0.009875
	minimum = 0.004 (at node 5)
	maximum = 0.02 (at node 0)
Accepted packet rate average = 0.010125
	minimum = 0 (at node 0)
	maximum = 0.162 (at node 2)
Injected flit rate average = 0.009875
	minimum = 0.004 (at node 5)
	maximum = 0.02 (at node 0)
Accepted flit rate average= 0.010125
	minimum = 0 (at node 0)
	maximum = 0.162 (at node 2)
Injected packet length average = 1
Accepted packet length average = 1
Total in-flight flits = 5 (0 measured)
latency change    = 0.107984
throughput change = 0.0679012
Warmed up ...Time used is 1500 cycles
Class 0:
Packet latency average = 21.814
	minimum = 7
	maximum = 52
Network latency average = 21.814
	minimum = 7
	maximum = 52
Slowest packet = 6681
Flit latency average = 21.7582
	minimum = 7
	maximum = 52
Slowest flit = 6681
Fragmentation average = 0
	minimum = 0
	maximum = 0
Injected packet rate average = 0.011125
	minimum = 0.006 (at node 5)
	maximum = 0.022 (at node 4)
Accepted packet rate average = 0.011375
	minimum = 0 (at node 0)
	maximum = 0.182 (at node 2)
Injected flit rate average = 0.011125
	minimum = 0.006 (at node 5)
	maximum = 0.022 (at node 4)
Accepted flit rate average= 0.011375
	minimum = 0 (at node 0)
	maximum = 0.182 (at node 2)
Injected packet length average = 1
Accepted packet length average = 1
Total in-flight flits = 3 (3 measured)
latency change    = 0.0497644
throughput change = 0.10989
Class 0:
Packet latency average = 21.012
	minimum = 7
	maximum = 52
Network latency average = 21.012
	minimum = 7
	maximum = 52
Slowest packet = 6681
Flit latency average = 21.0058
	minimum = 7
	maximum = 52
Slowest flit = 6681
Fragmentation average = 0
	minimum = 0
	maximum = 0
Injected packet rate average = 0.0105625
	minimum = 0.007 (at node 0)
	maximum = 0.018 (at node 4)
Accepted packet rate average = 0.0106875
	minimum = 0 (at node 0)
	maximum = 0.171 (at node 2)
Injected flit rate average = 0.0105625
	minimum = 0.007 (at node 0)
	maximum = 0.018 (at node 4)
Accepted flit rate average= 0.0106875
	minimum = 0 (at node 0)
	maximum = 0.171 (at node 2)
Injected packet length average = 1
Accepted packet length average = 1
Total in-flight flits = 3 (3 measured)
latency change    = 0.0381641
throughput change = 0.0643275
Class 0:
Packet latency average = 20.4718
	minimum = 7
	maximum = 52
Network latency average = 20.4718
	minimum = 7
	maximum = 52
Slowest packet = 6681
Flit latency average = 20.4783
	minimum = 7
	maximum = 52
Slowest flit = 6681
Fragmentation average = 0
	minimum = 0
	maximum = 0
Injected packet rate average = 0.0103333
	minimum = 0.00666667 (at node 0)
	maximum = 0.0146667 (at node 2)
Accepted packet rate average = 0.0105417
	minimum = 0 (at node 0)
	maximum = 0.168667 (at node 2)
Injected flit rate average = 0.0103333
	minimum = 0.00666667 (at node 0)
	maximum = 0.0146667 (at node 2)
Accepted flit rate average= 0.0105417
	minimum = 0 (at node 0)
	maximum = 0.168667 (at node 2)
Injected packet length average = 1
Accepted packet length average = 1
Total in-flight flits = 0 (0 measured)
latency change    = 0.0263912
throughput change = 0.013834
Class 0:
Packet latency average = 20.7485
	minimum = 7
	maximum = 52
Network latency average = 20.7485
	minimum = 7
	maximum = 52
Slowest packet = 6681
Flit latency average = 20.7493
	minimum = 7
	maximum = 52
Slowest flit = 6681
Fragmentation average = 0
	minimum = 0
	maximum = 0
Injected packet rate average = 0.0107812
	minimum = 0.0075 (at node 14)
	maximum = 0.015 (at node 8)
Accepted packet rate average = 0.0108437
	minimum = 0 (at node 0)
	maximum = 0.1735 (at node 2)
Injected flit rate average = 0.0107812
	minimum = 0.0075 (at node 14)
	maximum = 0.015 (at node 8)
Accepted flit rate average= 0.0108437
	minimum = 0 (at node 0)
	maximum = 0.1735 (at node 2)
Injected packet length average = 1
Accepted packet length average = 1
Total in-flight flits = 3 (3 measured)
latency change    = 0.013339
throughput change = 0.0278578
Class 0:
Packet latency average = 20.734
	minimum = 7
	maximum = 52
Network latency average = 20.734
	minimum = 7
	maximum = 52
Slowest packet = 6681
Flit latency average = 20.7347
	minimum = 7
	maximum = 52
Slowest flit = 6681
Fragmentation average = 0
	minimum = 0
	maximum = 0
Injected packet rate average = 0.0106
	minimum = 0.0076 (at node 1)
	maximum = 0.0144 (at node 8)
Accepted packet rate average = 0.01065
	minimum = 0 (at node 0)
	maximum = 0.1704 (at node 2)
Injected flit rate average = 0.0106
	minimum = 0.0076 (at node 1)
	maximum = 0.0144 (at node 8)
Accepted flit rate average= 0.01065
	minimum = 0 (at node 0)
	maximum = 0.1704 (at node 2)
Injected packet length average = 1
Accepted packet length average = 1
Total in-flight flits = 3 (3 measured)
latency change    = 0.000702773
throughput change = 0.0181925
Draining all recorded packets ...
Draining remaining packets ...
Time taken is 4030 cycles
Class 0:
Packet latency average = 19.3582
	minimum = 12
	maximum = 32
Network latency average = 19.3582
	minimum = 12
	maximum = 32
Slowest packet = 7114
Flit latency average = 19.3582
	minimum = 12
	maximum = 32
Slowest flit = 7114
Fragmentation average = 0
	minimum = 0
	maximum = 0
Injected packet rate average = 0.009
	minimum = 0 (at node 2)
	maximum = 0.018 (at node 0)
Accepted packet rate average = 0.008375
	minimum = 0 (at node 0)
	maximum = 0.134 (at node 2)
Injected flit rate average = 0.009
	minimum = 0 (at node 2)
	maximum = 0.018 (at node 0)
Accepted flit rate average= 0.008375
	minimum = 0 (at node 0)
	maximum = 0.134 (at node 2)
Injected packet length average = 1
Accepted packet length average = 1
Total in-flight flits = 5 (0 measured)
latency change    = 1
throughput change = 1
Class 0:
Packet latency average = 19.7958
	minimum = 7
	maximum = 33
Network latency average = 19.7958
	minimum = 7
	maximum = 33
Slowest packet = 7173
Flit latency average = 19.7958
	minimum = 7
	maximum = 33
Slowest flit = 7173
Fragmentation average = 0
	minimum = 0
	maximum = 0
Injected packet rate average = 0.0091875
	minimum = 0.003 (at node 2)
	maximum = 0.018 (at node 4)
Accepted packet rate average = 0.008875
	minimum = 0 (at node 0)
	maximum = 0.142 (at node 2)
Injected flit rate average = 0.0091875
	minimum = 0.003 (at node 2)
	maximum = 0.018 (at node 4)
Accepted flit rate average= 0.008875
	minimum = 0 (at node 0)
	maximum = 0.142 (at node 2)
Injected packet length average = 1
Accepted packet length average = 1
Total in-flight flits = 5 (0 measured)
latency change    = 0.022104
throughput change = 0.056338
Class 0:
Packet latency average = 20.1333
	minimum = 7
	maximum = 41
Network latency average = 20.1333
	minimum = 7
	maximum = 41
Slowest packet = 7268
Flit latency average = 20.1333
	minimum = 7
	maximum = 41
Slowest flit = 7268
Fragmentation average = 0
	minimum = 0
	maximum = 0
Injected packet rate average = 0.009
	minimum = 0 (at node 11)
	maximum = 0.014 (at node 1)
Accepted packet rate average = 0.009375
	minimum = 0 (at node 0)
	maximum = 0.15 (at node 2)
Injected flit rate average = 0.009
	minimum = 0 (at node 11)
	maximum = 0.014 (at node 1)
Accepted flit rate average= 0.009375
	minimum = 0 (at node 0)
	maximum = 0.15 (at node 2)
Injected packet length average = 1
Accepted packet length average = 1
Total in-flight flits = 2 (0 measured)
latency change    = 0.0167662
throughput change = 0.0533333
Warmed up ...Time used is 1500 cycles
Class 0:
Packet latency average = 20.8421
	minimum = 7
	maximum = 35
Network latency average = 20.8421
	minimum = 7
	maximum = 35
Slowest packet = 7358
Flit latency average = 20.8718
	minimum = 7
	maximum = 35
Slowest flit = 7358
Fragmentation average = 0
	minimum = 0
	maximum = 0
Injected packet rate average = 0.01
	minimum = 0.002 (at node 9)
	maximum = 0.018 (at node 13)
Accepted packet rate average = 0.00975
	minimum = 0 (at node 0)
	maximum = 0.156 (at node 2)
Injected flit rate average = 0.01
	minimum = 0.002 (at node 9)
	maximum = 0.018 (at node 13)
Accepted flit rate average= 0.00975
	minimum = 0 (at node 0)
	maximum = 0.156 (at node 2)
Injected packet length average = 1
Accepted packet length average = 1
Total in-flight flits = 4 (4 measured)
latency change    = 0.0340067
throughput change = 0.0384615
Class 0:
Packet latency average = 20.8868
	minimum = 7
	maximum = 43
Network latency average = 20.8868
	minimum = 7
	maximum = 43
Slowest packet = 7448
Flit latency average = 20.9006
	minimum = 7
	maximum = 43
Slowest flit = 7448
Fragmentation average = 0
	minimum = 0
	maximum = 0
Injected packet rate average = 0.01
	minimum = 0.006 (at node 1)
	maximum = 0.015 (at node 15)
Accepted packet rate average = 0.0100625
	minimum = 0 (at node 0)
	maximum = 0.161 (at node 2)
Injected flit rate average = 0.01
	minimum = 0.006 (at node 1)
	maximum = 0.015 (at node 15)
Accepted flit rate average= 0.0100625
	minimum = 0 (at node 0)
	maximum = 0.161 (at node 2)
Injected packet length average = 1
Accepted packet length average = 1
Total in-flight flits = 1 (1 measured)
latency change    = 0.0021395
throughput change = 0.0310559
Class 0:
Packet latency average = 20.5067
	minimum = 7
	maximum = 43
Network latency average = 20.5067
	minimum = 7
	maximum = 43
Slowest packet = 7448
Flit latency average = 20.5198
	minimum = 7
	maximum = 43
Slowest flit = 7448
Fragmentation average = 0
	minimum = 0
	maximum = 0
Injected packet rate average = 0.00966667
	minimum = 0.006 (at node 1)
	maximum = 0.0133333 (at node 15)
Accepted packet rate average = 0.00945833
	minimum = 0 (at node 0)
	maximum = 0.151333 (at node 2)
Injected flit rate average = 0.00966667
	minimum = 0.006 (at node 1)
	maximum = 0.0133333 (at node 15)
Accepted flit rate average= 0.00945833
	minimum = 0 (at node 0)
	maximum = 0.151333 (at node 2)
Injected packet length average = 1
Accepted packet length average = 1
[...]
	minimum = 0 (at node 0)
	maximum = 0.155 (at node 2)
Injected packet length average = 1
Accepted packet length average = 1
Total in-flight flits = 8 (0 measured)
latency change    = 0.0637035
throughput change = 0.0580645
Class 0:
Packet latency average = 21.5714
	minimum = 7
	maximum = 50
Network latency average = 21.5714
	minimum = 7
	maximum = 50
Slowest packet = 32404
Flit latency average = 21.5714
	minimum = 7
	maximum = 50
Slowest flit = 32404
Fragmentation average = 0
	minimum = 0
	maximum = 0
Injected packet rate average = 0.0115
	minimum = 0.004 (at node 9)
	maximum = 0.032 (at node 8)
Accepted packet rate average = 0.01225
	minimum = 0 (at node 0)
	maximum = 0.196 (at node 2)
Injected flit rate average = 0.0115
	minimum = 0.004 (at node 9)
	maximum = 0.032 (at node 8)
Accepted flit rate average= 0.01225
	minimum = 0 (at node 0)
	maximum = 0.196 (at node 2)
Injected packet length average = 1
Accepted packet length average = 1
Total in-flight flits = 2 (0 measured)
latency change    = 0.0830164
throughput change = 0.209184
Warmed up ...Time used is 1500 cycles
Class 0:
Packet latency average = 19.6154
	minimum = 7
	maximum = 36
Network latency average = 19.6154
	minimum = 7
	maximum = 36
Slowest packet = 32507
Flit latency average = 19.8
	minimum = 7
	maximum = 36
Slowest flit = 32507
Fragmentation average = 0
	minimum = 0
	maximum = 0
Injected packet rate average = 0.0105
	minimum = 0.004 (at node 8)
	maximum = 0.02 (at node 12)
Accepted packet rate average = 0.01
	minimum = 0 (at node 0)
	maximum = 0.16 (at node 2)
Injected flit rate average = 0.0105
	minimum = 0.004 (at node 8)
	maximum = 0.02 (at node 12)
Accepted flit rate average= 0.01
	minimum = 0 (at node 0)
	maximum = 0.16 (at node 2)
Injected packet length average = 1
Accepted packet length average = 1
Total in-flight flits = 6 (6 measured)
latency change    = 0.0997199
throughput change = 0.225
Class 0:
Packet latency average = 20.3497
	minimum = 7
	maximum = 43
Network latency average = 20.3497
	minimum = 7
	maximum = 43
Slowest packet = 32652
Flit latency average = 20.4303
	minimum = 7
	maximum = 43
Slowest flit = 32652
Fragmentation average = 0
	minimum = 0
	maximum = 0
Injected packet rate average = 0.0103125
	minimum = 0.006 (at node 9)
	maximum = 0.016 (at node 12)
Accepted packet rate average = 0.0103125
	minimum = 0 (at node 0)
	maximum = 0.165 (at node 2)
Injected flit rate average = 0.0103125
	minimum = 0.006 (at node 9)
	maximum = 0.016 (at node 12)
Accepted flit rate average= 0.0103125
	minimum = 0 (at node 0)
	maximum = 0.165 (at node 2)
Injected packet length average = 1
Accepted packet length average = 1
Total in-flight flits = 2 (2 measured)
latency change    = 0.0360845
throughput change = 0.030303
Class 0:
Packet latency average = 19.9922
	minimum = 7
	maximum = 45
Network latency average = 19.9922
	minimum = 7
	maximum = 45
Slowest packet = 32684
Flit latency average = 20.0463
	minimum = 7
	maximum = 45
Slowest flit = 32684
Fragmentation average = 0
	minimum = 0
	maximum = 0
Injected packet rate average = 0.0109583
	minimum = 0.008 (at node 9)
	maximum = 0.0146667 (at node 0)
Accepted packet rate average = 0.0107917
	minimum = 0 (at node 0)
	maximum = 0.172667 (at node 2)
Injected flit rate average = 0.0109583
	minimum = 0.008 (at node 9)
	maximum = 0.0146667 (at node 0)
Accepted flit rate average= 0.0107917
	minimum = 0 (at node 0)
	maximum = 0.172667 (at node 2)
Injected packet length average = 1
Accepted packet length average = 1
Total in-flight flits = 6 (6 measured)
latency change    = 0.0178807
throughput change = 0.0444015
Class 0:
Packet latency average = 19.7464
	minimum = 7
	maximum = 45
Network latency average = 19.7464
	minimum = 7
	maximum = 45
Slowest packet = 32684
Flit latency average = 19.788
	minimum = 7
	maximum = 45
Slowest flit = 32684
Fragmentation average = 0
	minimum = 0
	maximum = 0
Injected packet rate average = 0.0109062
	minimum = 0.008 (at node 4)
	maximum = 0.0135 (at node 2)
Accepted packet rate average = 0.0109062
	minimum = 0 (at node 0)
	maximum = 0.1745 (at node 2)
Injected flit rate average = 0.0109062
	minimum = 0.008 (at node 4)
	maximum = 0.0135 (at node 2)
Accepted flit rate average= 0.0109062
	minimum = 0 (at node 0)
	maximum = 0.1745 (at node 2)
Injected packet length average = 1
Accepted packet length average = 1
Total in-flight flits = 2 (2 measured)
latency change    = 0.0124489
throughput change = 0.0105062
Draining all recorded packets ...
Draining remaining packets ...
Time taken is 3515 cycles
Class 0:
Packet latency average = 19.1714
	minimum = 7
	maximum = 34
Network latency average = 19.1714
	minimum = 7
	maximum = 34
Slowest packet = 32865
Flit latency average = 19.1714
	minimum = 7
	maximum = 34
Slowest flit = 32865
Fragmentation average = 0
	minimum = 0
	maximum = 0
Injected packet rate average = 0.0095
	minimum = 0 (at node 7)
	maximum = 0.02 (at node 3)
Accepted packet rate average = 0.00875
	minimum = 0 (at node 0)
	maximum = 0.14 (at node 2)
Injected flit rate average = 0.0095
	minimum = 0 (at node 7)
	maximum = 0.02 (at node 3)
Accepted flit rate average= 0.00875
	minimum = 0 (at node 0)
	maximum = 0.14 (at node 2)
Injected packet length average = 1
Accepted packet length average = 1
Total in-flight flits = 6 (0 measured)
latency change    = 1
throughput change = 1
Class 0:
Packet latency average = 19.6928
	minimum = 7
	maximum = 38
Network latency average = 19.6928
	minimum = 7
	maximum = 38
Slowest packet = 32943
Flit latency average = 19.6928
	minimum = 7
	maximum = 38
Slowest flit = 32943
Fragmentation average = 0
	minimum = 0
	maximum = 0
Injected packet rate average = 0.009625
	minimum = 0.002 (at node 7)
	maximum = 0.017 (at node 10)
Accepted packet rate average = 0.0095625
	minimum = 0 (at node 0)
	maximum = 0.153 (at node 2)
Injected flit rate average = 0.009625
	minimum = 0.002 (at node 7)
	maximum = 0.017 (at node 10)
Accepted flit rate average= 0.0095625
	minimum = 0 (at node 0)
	maximum = 0.153 (at node 2)
Injected packet length average = 1
Accepted packet length average = 1
Total in-flight flits = 1 (0 measured)
latency change    = 0.0264757
throughput change = 0.0849673
Class 0:
Packet latency average = 20.4935
	minimum = 7
	maximum = 38
Network latency average = 20.4935
	minimum = 7
	maximum = 38
Slowest packet = 33007
Flit latency average = 20.4935
	minimum = 7
	maximum = 38
Slowest flit = 33007
Fragmentation average = 0
	minimum = 0
	maximum = 0
Injected packet rate average = 0.009875
	minimum = 0.002 (at node 4)
	maximum = 0.022 (at node 1)
Accepted packet rate average = 0.009625
	minimum = 0 (at node 0)
	maximum = 0.154 (at node 2)
Injected flit rate average = 0.009875
	minimum = 0.002 (at node 4)
	maximum = 0.022 (at node 1)
Accepted flit rate average= 0.009625
	minimum = 0 (at node 0)
	maximum = 0.154 (at node 2)
Injected packet length average = 1
Accepted packet length average = 1
Total in-flight flits = 3 (0 measured)
latency change    = 0.0390707
throughput change = 0.00649351
Warmed up ...Time used is 1500 cycles
Class 0:
Packet latency average = 19.8554
	minimum = 7
	maximum = 40
Network latency average = 19.8554
	minimum = 7
	maximum = 40
Slowest packet = 33135
Flit latency average = 19.9302
	minimum = 7
	maximum = 40
Slowest flit = 33135
Fragmentation average = 0
	minimum = 0
	maximum = 0
Injected packet rate average = 0.0105
	minimum = 0.002 (at node 4)
	maximum = 0.016 (at node 2)
Accepted packet rate average = 0.01075
	minimum = 0 (at node 0)
	maximum = 0.172 (at node 2)
Injected flit rate average = 0.0105
	minimum = 0.002 (at node 4)
	maximum = 0.016 (at node 2)
Accepted flit rate average= 0.01075
	minimum = 0 (at node 0)
	maximum = 0.172 (at node 2)
Injected packet length average = 1
Accepted packet length average = 1
Total in-flight flits = 1 (1 measured)
latency change    = 0.0321366
throughput change = 0.104651
Class 0:
Packet latency average = 20.0503
	minimum = 7
	maximum = 46
Network latency average = 20.0503
	minimum = 7
	maximum = 46
Slowest packet = 33219
Flit latency average = 20.0864
	minimum = 7
	maximum = 46
Slowest flit = 33219
Fragmentation average = 0
	minimum = 0
	maximum = 0
Injected packet rate average = 0.010125
	minimum = 0.005 (at node 4)
	maximum = 0.015 (at node 10)
Accepted packet rate average = 0.010125
	minimum = 0 (at node 0)
	maximum = 0.162 (at node 2)
Injected flit rate average = 0.010125
	minimum = 0.005 (at node 4)
	maximum = 0.015 (at node 10)
Accepted flit rate average= 0.010125
	minimum = 0 (at node 0)
	maximum = 0.162 (at node 2)
Injected packet length average = 1
Accepted packet length average = 1
Total in-flight flits = 3 (3 measured)
latency change    = 0.00972019
throughput change = 0.0617284
Class 0:
Packet latency average = 20.3647
	minimum = 7
	maximum = 46
Network latency average = 20.3647
	minimum = 7
	maximum = 46
Slowest packet = 33219
Flit latency average = 20.3837
	minimum = 7
	maximum = 46
Slowest flit = 33219
Fragmentation average = 0
	minimum = 0
	maximum = 0
Injected packet rate average = 0.01075
	minimum = 0.00733333 (at node 4)
	maximum = 0.0146667 (at node 10)
Accepted packet rate average = 0.01075
	minimum = 0 (at node 0)
	maximum = 0.172 (at node 2)
Injected flit rate average = 0.01075
	minimum = 0.00733333 (at node 4)
	maximum = 0.0146667 (at node 10)
Accepted flit rate average= 0.01075
	minimum = 0 (at node 0)
	maximum = 0.172 (at node 2)
Injected packet length average = 1
Accepted packet length average = 1
Total in-flight flits = 3 (3 measured)
latency change    = 0.0154381
throughput change = 0.0581395
Class 0:
Packet latency average = 20.1385
	minimum = 7
	maximum = 46
Network latency average = 20.1385
	minimum = 7
	maximum = 46
Slowest packet = 33219
Flit latency average = 20.1555
	minimum = 7
	maximum = 46
Slowest flit = 33219
Fragmentation average = 0
	minimum = 0
	maximum = 0
Injected packet rate average = 0.0102188
	minimum = 0.0065 (at node 4)
	maximum = 0.0135 (at node 10)
Accepted packet rate average = 0.01025
	minimum = 0 (at node 0)
	maximum = 0.164 (at node 2)
Injected flit rate average = 0.0102188
	minimum = 0.0065 (at node 4)
	maximum = 0.0135 (at node 10)
Accepted flit rate average= 0.01025
	minimum = 0 (at node 0)
	maximum = 0.164 (at node 2)
Injected packet length average = 1
Accepted packet length average = 1
Total in-flight flits = 2 (2 measured)
latency change    = 0.0112344
throughput change = 0.0487805
Class 0:
Packet latency average = 20.1901
	minimum = 7
	maximum = 46
Network latency average = 20.1901
	minimum = 7
	maximum = 46
Slowest packet = 33219
Flit latency average = 20.2034
	minimum = 7
	maximum = 46
Slowest flit = 33219
Fragmentation average = 0
	minimum = 0
	maximum = 0
Injected packet rate average = 0.0102
	minimum = 0.008 (at node 7)
	maximum = 0.014 (at node 11)
Accepted packet rate average = 0.0102
	minimum = 0 (at node 0)
	maximum = 0.1632 (at node 2)
Injected flit rate average = 0.0102
	minimum = 0.008 (at node 7)
	maximum = 0.014 (at node 11)
Accepted flit rate average= 0.0102
	minimum = 0 (at node 0)
	maximum = 0.1632 (at node 2)
Injected packet length average = 1
Accepted packet length average = 1
Total in-flight flits = 3 (3 measured)
latency change    = 0.00255877
throughput change = 0.00490196
Class 0:
Packet latency average = 20.1429
	minimum = 7
	maximum = 46
Network latency average = 20.1429
	minimum = 7
	maximum = 46
Slowest packet = 33219
Flit latency average = 20.1543
	minimum = 7
	maximum = 46
Slowest flit = 33219
Fragmentation average = 0
	minimum = 0
	maximum = 0
Injected packet rate average = 0.0101875
	minimum = 0.00833333 (at node 9)
	maximum = 0.0133333 (at node 11)
Accepted packet rate average = 0.010125
	minimum = 0 (at node 0)
	maximum = 0.162 (at node 2)
Injected flit rate average = 0.0101875
	minimum = 0.00833333 (at node 9)
	maximum = 0.0133333 (at node 11)
Accepted flit rate average= 0.010125
	minimum = 0 (at node 0)
	maximum = 0.162 (at node 2)
Injected packet length average = 1
Accepted packet length average = 1
Total in-flight flits = 6 (6 measured)
latency change    = 0.00234655
throughput change = 0.00740741
Draining all recorded packets ...
Draining remaining packets ...
Time taken is 4545 cycles
Class 0:
Packet latency average = 19.6719
	minimum = 7
	maximum = 32
Network latency average = 19.6719
	minimum = 7
	maximum = 32
Slowest packet = 33574
Flit latency average = 19.6719
	minimum = 7
	maximum = 32
Slowest flit = 33574
Fragmentation average = 0
	minimum = 0
	maximum = 0
Injected packet rate average = 0.0085
	minimum = 0.004 (at node 6)
	maximum = 0.012 (at node 3)
Accepted packet rate average = 0.008
	minimum = 0 (at node 0)
	maximum = 0.128 (at node 2)
Injected flit rate average = 0.0085
	minimum = 0.004 (at node 6)
	maximum = 0.012 (at node 3)
Accepted flit rate average= 0.008
	minimum = 0 (at node 0)
	maximum = 0.128 (at node 2)
Injected packet length average = 1
Accepted packet length average = 1
Total in-flight flits = 4 (0 measured)
latency change    = 1
throughput change = 1
Class 0:
Packet latency average = 19.4676
	minimum = 7
	maximum = 32
Network latency average = 19.4676
	minimum = 7
	maximum = 32
Slowest packet = 33574
Flit latency average = 19.4676
	minimum = 7
	maximum = 32
Slowest flit = 33574
Fragmentation average = 0
	minimum = 0
	maximum = 0
Injected packet rate average = 0.008875
	minimum = 0.006 (at node 0)
	maximum = 0.013 (at node 3)
Accepted packet rate average = 0.0086875
	minimum = 0 (at node 0)
	maximum = 0.139 (at node 2)
Injected flit rate average = 0.008875
	minimum = 0.006 (at node 0)
	maximum = 0.013 (at node 3)
Accepted flit rate average= 0.0086875
	minimum = 0 (at node 0)
	maximum = 0.139 (at node 2)
Injected packet length average = 1
Accepted packet length average = 1
Total in-flight flits = 3 (0 measured)
latency change    = 0.0104917
throughput change = 0.0791367
Class 0:
Packet latency average = 21.4872
	minimum = 12
	maximum = 43
Network latency average = 21.4872
	minimum = 12
	maximum = 43
Slowest packet = 33760
Flit latency average = 21.4872
	minimum = 12
	maximum = 43
Slowest flit = 33760
Fragmentation average = 0
	minimum = 0
	maximum = 0
Injected packet rate average = 0.0095
	minimum = 0 (at node 2)
	maximum = 0.016 (at node 1)
Accepted packet rate average = 0.00975
	minimum = 0 (at node 0)
	maximum = 0.156 (at node 2)
Injected flit rate average = 0.0095
	minimum = 0 (at node 2)
	maximum = 0.016 (at node 1)
Accepted flit rate average= 0.00975
	minimum = 0 (at node 0)
	maximum = 0.156 (at node 2)
Injected packet length average = 1
Accepted packet length average = 1
Total in-flight flits = 1 (0 measured)
latency change    = 0.0939888
throughput change = 0.108974
Warmed up ...Time used is 1500 cycles
Class 0:
Packet latency average = 20.0448
	minimum = 7
	maximum = 35
Network latency average = 20.0448
	minimum = 7
	maximum = 35
Slowest packet = 33804
Flit latency average = 20
	minimum = 7
	maximum = 35
Slowest flit = 33804
Fragmentation average = 0
	minimum = 0
	maximum = 0
Injected packet rate average = 0.00875
	minimum = 0.002 (at node 7)
	maximum = 0.016 (at node 3)
Accepted packet rate average = 0.0085
	minimum = 0 (at node 0)
	maximum = 0.136 (at node 2)
Injected flit rate average = 0.00875
	minimum = 0.002 (at node 7)
	maximum = 0.016 (at node 3)
Accepted flit rate average= 0.0085
	minimum = 0 (at node 0)
	maximum = 0.136 (at node 2)
Injected packet length average = 1
Accepted packet length average = 1
Total in-flight flits = 3 (3 measured)
latency change    = 0.0719591
throughput change = 0.147059
Class 0:
Packet latency average = 19.2642
	minimum = 7
	maximum = 41
Network latency average = 19.2642
	minimum = 7
	maximum = 41
Slowest packet = 33925
Flit latency average = 19.25
	minimum = 7
	maximum = 41
Slowest flit = 33925
Fragmentation average = 0
	minimum = 0
	maximum = 0
Injected packet rate average = 0.010125
	minimum = 0.006 (at node 15)
	maximum = 0.014 (at node 1)
Accepted packet rate average = 0.01
	minimum = 0 (at node 0)
	maximum = 0.16 (at node 2)
Injected flit rate average = 0.010125
	minimum = 0.006 (at node 15)
	maximum = 0.014 (at node 1)
Accepted flit rate average= 0.01
	minimum = 0 (at node 0)
	maximum = 0.16 (at node 2)
Injected packet length average = 1
Accepted packet length average = 1
Total in-flight flits = 3 (3 measured)
latency change    = 0.0405222
throughput change = 0.15
Class 0:
Packet latency average = 19.8902
	minimum = 7
	maximum = 41
Network latency average = 19.8902
	minimum = 7
	maximum = 41
Slowest packet = 33925
Flit latency average = 19.8785
	minimum = 7
	maximum = 41
Slowest flit = 33925
Fragmentation average = 0
	minimum = 0
	maximum = 0
Injected packet rate average = 0.0103333
	minimum = 0.00666667 (at node 0)
	maximum = 0.014 (at node 1)
Accepted packet rate average = 0.0102917
	minimum = 0 (at node 0)
	maximum = 0.164667 (at node 2)
Injected flit rate average = 0.0103333
	minimum = 0.00666667 (at node 0)
	maximum = 0.014 (at node 1)
Accepted flit rate average= 0.0102917
	minimum = 0 (at node 0)
	maximum = 0.164667 (at node 2)
Injected packet length average = 1
Accepted packet length average = 1
Total in-flight flits = 2 (2 measured)
latency change    = 0.0314774
throughput change = 0.0283401
Class 0:
Packet latency average = 20.0652
	minimum = 7
	maximum = 42
Network latency average = 20.0652
	minimum = 7
	maximum = 42
Slowest packet = 34079
Flit latency average = 20.0557
	minimum = 7
	maximum = 42
Slowest flit = 34079
Fragmentation average = 0
	minimum = 0
	maximum = 0
Injected packet rate average = 0.01025
	minimum = 0.0065 (at node 0)
	maximum = 0.014 (at node 13)
Accepted packet rate average = 0.0100938
	minimum = 0 (at node 0)
	maximum = 0.1615 (at node 2)
Injected flit rate average = 0.01025
	minimum = 0.0065 (at node 0)
	maximum = 0.014 (at node 13)
Accepted flit rate average= 0.0100938
	minimum = 0 (at node 0)
	maximum = 0.1615 (at node 2)
Injected packet length average = 1
Accepted packet length average = 1
Total in-flight flits = 6 (6 measured)
latency change    = 0.00872024
throughput change = 0.0196078
Class 0:
Packet latency average = 20.0596
	minimum = 7
	maximum = 42
Network latency average = 20.0596
	minimum = 7
	maximum = 42
Slowest packet = 34079
Flit latency average = 20.052
	minimum = 7
	maximum = 42
Slowest flit = 34079
Fragmentation average = 0
	minimum = 0
	maximum = 0
Injected packet rate average = 0.0101
	minimum = 0.006 (at node 15)
	maximum = 0.0128 (at node 6)
Accepted packet rate average = 0.0101
	minimum = 0 (at node 0)
	maximum = 0.1616 (at node 2)
Injected flit rate average = 0.0101
	minimum = 0.006 (at node 15)
	maximum = 0.0128 (at node 6)
Accepted flit rate average= 0.0101
	minimum = 0 (at node 0)
	maximum = 0.1616 (at node 2)
Injected packet length average = 1
Accepted packet length average = 1
Total in-flight flits = 1 (1 measured)
latency change    = 0.000282361
throughput change = 0.000618812
Draining all recorded packets ...
Draining remaining packets ...
Time taken is 4052 cycles
====== Overall Traffic Statistics ======
====== Traffic class 0 ======
Packet latency average = 20.3015 (50 samples)
	minimum = 7 (50 samples)
	maximum = 46.26 (50 samples)
Network latency average = 20.3015 (50 samples)
	minimum = 7 (50 samples)
	maximum = 46.26 (50 samples)
Flit latency average = 20.3156 (50 samples)
	minimum = 7 (50 samples)
	maximum = 46.26 (50 samples)
Fragmentation average = 0 (50 samples)
	minimum = 0 (50 samples)
	maximum = 0 (50 samples)
Injected packet rate average = 0.0100684 (50 samples)
	minimum = 0.00666971 (50 samples)
	maximum = 0.0135718 (50 samples)
Accepted packet rate average = 0.0100566 (50 samples)
	minimum = 0 (50 samples)
	maximum = 0.160905 (50 samples)
Injected flit rate average = 0.0100684 (50 samples)
	minimum = 0.00666971 (50 samples)
	maximum = 0.0135718 (50 samples)
Accepted flit rate average = 0.0100566 (50 samples)
	minimum = 0 (50 samples)
	maximum = 0.160905 (50 samples)
Injected packet size average = 1 (50 samples)
Accepted packet size average = 1 (50 samples)
Hops average = 3.50985 (50 samples)
Total run time 1.12102
