BEGIN Configuration File: /tmp/tmp5091571g.cfg
topology = mesh;
k = 4;
n = 2;
routing_function = planar_adapt;
num_vcs = 4;
vc_buf_size = 4;
wait_for_tail_credit = 1;
vc_allocator = islip;
sw_allocator = islip;
alloc_iters = 1;
credit_delay = 2;
routing_delay = 1;
vc_alloc_delay = 1;
sw_alloc_delay = 1;
input_speedup = 2;
output_speedup = 1;
internal_speedup = 1.0;
traffic = uniform;
packet_size = 1;
sim_type = latency;
injection_rate = 0.01;
warmup_periods = 3;
sample_period = 500;
sim_count = 50;
seed = 1;
link_failures = 4;
fail_seed = 202;

END Configuration File: /tmp/tmp5091571g.cfg
failure at node 4, channel 2 (1/4)
failure at node 13, channel 0 (2/4)
failure at node 6, channel 1 (3/4)
failure at node 11, channel 3 (4/4)
Class 0:
Packet latency average = 19.4699
	minimum = 7
	maximum = 47
Network latency average = 19.4699
	minimum = 7
	maximum = 47
Slowest packet = 65
Flit latency average = 19.4699
	minimum = 7
	maximum = 47
Slowest flit = 65
Fragmentation average = 0
	minimum = 0
	maximum = 0
Injected packet rate average = 0.011125
	minimum = 0.006 (at node 1)
	maximum = 0.022 (at node 7)
Accepted packet rate average = 0.010375
	minimum = 0.004 (at node 0)
	maximum = 0.018 (at node 12)
Injected flit rate average = 0.011125
	minimum = 0.006 (at node 1)
	maximum = 0.022 (at node 7)
Accepted flit rate average= 0.010375
	minimum = 0.004 (at node 0)
	maximum = 0.018 (at node 12)
Injected packet length average = 1
Accepted packet length average = 1
Total in-flight flits = 6 (0 measured)
latency change    = 1
throughput change = 1
Class 0:
Packet latency average = 21.7485
	minimum = 7
	maximum = 52
Network latency average = 21.7485
	minimum = 7
	maximum = 52
Slowest packet = 153
Flit latency average = 21.7485
	minimum = 7
	maximum = 52
Slowest flit = 153
Fragmentation average = 0
	minimum = 0
	maximum = 0
Injected packet rate average = 0.0108125
	minimum = 0.006 (at node 2)
	maximum = 0.019 (at node 7)
Accepted packet rate average = 0.0104375
	minimum = 0.006 (at node 0)
	maximum = 0.016 (at node 2)
Injected flit rate average = 0.0108125
	minimum = 0.006 (at node 2)
	maximum = 0.019 (at node 7)
Accepted flit rate average= 0.0104375
	minimum = 0.006 (at node 0)
	maximum = 0.016 (at node 2)
Injected packet length average = 1
Accepted packet length average = 1
Total in-flight flits = 6 (0 measured)
latency change    = 0.104772
throughput change = 0.00598802
Class 0:
Packet latency average = 23.6133
	minimum = 7
	maximum = 57
Network latency average = 23.6133
	minimum = 7
	maximum = 57
Slowest packet = 192
Flit latency average = 23.6133
	minimum = 7
	maximum = 57
Slowest flit = 192
Fragmentation average = 0
	minimum = 0
	maximum = 0
Injected packet rate average = 0.009
	minimum = 0.002 (at node 6)
	maximum = 0.026 (at node 12)
Accepted packet rate average = 0.009375
	minimum = 0.002 (at node 13)
	maximum = 0.016 (at node 9)
Injected flit rate average = 0.009
	minimum = 0.002 (at node 6)
	maximum = 0.026 (at node 12)
Accepted flit rate average= 0.009375
	minimum = 0.002 (at node 13)
	maximum = 0.016 (at node 9)
Injected packet length average = 1
Accepted packet length average = 1
Total in-flight flits = 3 (0 measured)
latency change    = 0.0789736
throughput change = 0.113333
Warmed up ...Time used is 1500 cycles
Class 0:
Packet latency average = 20.7059
	minimum = 7
	maximum = 52
Network latency average = 20.7059
	minimum = 7
	maximum = 52
Slowest packet = 266
Flit latency average = 20.8857
	minimum = 7
	maximum = 52
Slowest flit = 266
Fragmentation average = 0
	minimum = 0
	maximum = 0
Injected packet rate average = 0.0135
	minimum = 0.006 (at node 2)
	maximum = 0.026 (at node 8)
Accepted packet rate average = 0.013125
	minimum = 0.008 (at node 7)
	maximum = 0.022 (at node 10)
Injected flit rate average = 0.0135
	minimum = 0.006 (at node 2)
	maximum = 0.026 (at node 8)
Accepted flit rate average= 0.013125
	minimum = 0.008 (at node 7)
	maximum = 0.022 (at node 10)
Injected packet length average = 1
Accepted packet length average = 1
Total in-flight flits = 6 (6 measured)
latency change    = 0.140417
throughput change = 0.285714
Class 0:
Packet latency average = 21.6737
	minimum = 7
	maximum = 53
Network latency average = 21.6737
	minimum = 7
	maximum = 53
Slowest packet = 416
Flit latency average = 21.7565
	minimum = 7
	maximum = 53
Slowest flit = 416
Fragmentation average = 0
	minimum = 0
	maximum = 0
Injected packet rate average = 0.0119375
	minimum = 0.007 (at node 0)
	maximum = 0.019 (at node 8)
Accepted packet rate average = 0.0120625
	minimum = 0.007 (at node 7)
	maximum = 0.017 (at node 1)
Injected flit rate average = 0.0119375
	minimum = 0.007 (at node 0)
	maximum = 0.019 (at node 8)
Accepted flit rate average= 0.0120625
	minimum = 0.007 (at node 7)
	maximum = 0.017 (at node 1)
Injected packet length average = 1
Accepted packet length average = 1
Total in-flight flits = 1 (1 measured)
latency change    = 0.0446533
throughput change = 0.0880829
Class 0:
Packet latency average = 21.9811
	minimum = 7
	maximum = 57
Network latency average = 21.9811
	minimum = 7
	maximum = 57
Slowest packet = 468
Flit latency average = 22.0375
	minimum = 7
	maximum = 57
Slowest flit = 468
Fragmentation average = 0
	minimum = 0
	maximum = 0
Injected packet rate average = 0.0112083
	minimum = 0.006 (at node 0)
	maximum = 0.0153333 (at node 8)
Accepted packet rate average = 0.011125
	minimum = 0.00733333 (at node 14)
	maximum = 0.0146667 (at node 3)
Injected flit rate average = 0.0112083
	minimum = 0.006 (at node 0)
	maximum = 0.0153333 (at node 8)
Accepted flit rate average= 0.011125
	minimum = 0.00733333 (at node 14)
	maximum = 0.0146667 (at node 3)
Injected packet length average = 1
Accepted packet length average = 1
Total in-flight flits = 5 (5 measured)
latency change    = 0.0139837
throughput change = 0.0842697
Class 0:
Packet latency average = 22.122
	minimum = 7
	maximum = 57
Network latency average = 22.122
	minimum = 7
	maximum = 57
Slowest packet = 468
Flit latency average = 22.1652
	minimum = 7
	maximum = 57
Slowest flit = 468
Fragmentation average = 0
	minimum = 0
	maximum = 0
Injected packet rate average = 0.0106875
	minimum = 0.0055 (at node 0)
	maximum = 0.0135 (at node 8)
Accepted packet rate average = 0.0105938
	minimum = 0.0075 (at node 0)
	maximum = 0.0135 (at node 3)
Injected flit rate average = 0.0106875
	minimum = 0.0055 (at node 0)
	maximum = 0.0135 (at node 8)
Accepted flit rate average= 0.0105938
	minimum = 0.0075 (at node 0)
	maximum = 0.0135 (at node 3)
Injected packet length average = 1
Accepted packet length average = 1
Total in-flight flits = 6 (6 measured)
latency change    = 0.00637208
throughput change = 0.0501475
Class 0:
Packet latency average = 22.4867
	minimum = 7
	maximum = 78
Network latency average = 22.4867
	minimum = 7
	maximum = 78
Slowest packet = 600
Flit latency average = 22.5191
	minimum = 7
	maximum = 78
Slowest flit = 600
Fragmentation average = 0
	minimum = 0
	maximum = 0
Injected packet rate average = 0.010475
	minimum = 0.006 (at node 0)
	maximum = 0.0132 (at node 6)
Accepted packet rate average = 0.01045
	minimum = 0.008 (at node 0)
	maximum = 0.0132 (at node 3)
Injected flit rate average = 0.010475
	minimum = 0.006 (at node 0)
	maximum = 0.0132 (at node 6)
Accepted flit rate average= 0.01045
	minimum = 0.008 (at node 0)
	maximum = 0.0132 (at node 3)
Injected packet length average = 1
Accepted packet length average = 1
Total in-flight flits = 4 (4 measured)
latency change    = 0.0162195
throughput change = 0.013756
Class 0:
Packet latency average = 22.2774
	minimum = 7
	maximum = 78
Network latency average = 22.2774
	minimum = 7
	maximum = 78
Slowest packet = 600
Flit latency average = 22.3056
	minimum = 7
	maximum = 78
Slowest flit = 600
Fragmentation average = 0
	minimum = 0
	maximum = 0
Injected packet rate average = 0.0105208
	minimum = 0.00733333 (at node 0)
	maximum = 0.0133333 (at node 14)
Accepted packet rate average = 0.0105
	minimum = 0.00766667 (at node 0)
	maximum = 0.0136667 (at node 4)
Injected flit rate average = 0.0105208
	minimum = 0.00733333 (at node 0)
	maximum = 0.0133333 (at node 14)
Accepted flit rate average= 0.0105
	minimum = 0.00766667 (at node 0)
	maximum = 0.0136667 (at node 4)
Injected packet length average = 1
Accepted packet length average = 1
Total in-flight flits = 4 (4 measured)
latency change    = 0.00939524
throughput change = 0.0047619
Class 0:
Packet latency average = 22.1475
	minimum = 7
	maximum = 78
Network latency average = 22.1475
	minimum = 7
	maximum = 78
Slowest packet = 600
Flit latency average = 22.1724
	minimum = 7
	maximum = 78
Slowest flit = 600
Fragmentation average = 0
	minimum = 0
	maximum = 0
Injected packet rate average = 0.0105
	minimum = 0.00742857 (at node 10)
	maximum = 0.0131429 (at node 1)
Accepted packet rate average = 0.0104643
	minimum = 0.008 (at node 0)
	maximum = 0.0125714 (at node 4)
Injected flit rate average = 0.0105
	minimum = 0.00742857 (at node 10)
	maximum = 0.0131429 (at node 1)
Accepted flit rate average= 0.0104643
	minimum = 0.008 (at node 0)
	maximum = 0.0125714 (at node 4)
Injected packet length average = 1
Accepted packet length average = 1
Total in-flight flits = 5 (5 measured)
latency change    = 0.00586667
throughput change = 0.00341297
Draining all recorded packets ...
Draining remaining packets ...
Time taken is 5076 cycles
Class 0:
Packet latency average = 22.0606
	minimum = 7
	maximum = 47
Network latency average = 22.0606
	minimum = 7
	maximum = 47
Slowest packet = 865
Flit latency average = 22.0606
	minimum = 7
	maximum = 47
Slowest flit = 865
Fragmentation average = 0
	minimum = 0
	maximum = 0
Injected packet rate average = 0.008625
	minimum = 0.004 (at node 1)
	maximum = 0.016 (at node 10)
Accepted packet rate average = 0.00825
	minimum = 0.002 (at node 6)
	maximum = 0.018 (at node 0)
Injected flit rate average = 0.008625
	minimum = 0.004 (at node 1)
	maximum = 0.016 (at node 10)
Accepted flit rate average= 0.00825
	minimum = 0.002 (at node 6)
	maximum = 0.018 (at node 0)
Injected packet length average = 1
Accepted packet length average = 1
Total in-flight flits = 3 (0 measured)
latency change    = 1
throughput change = 1
Class 0:
Packet latency average = 22.0833
	minimum = 7
	maximum = 52
Network latency average = 22.0833
	minimum = 7
	maximum = 52
Slowest packet = 954
Flit latency average = 22.0833
	minimum = 7
	maximum = 52
Slowest flit = 954
Fragmentation average = 0
	minimum = 0
	maximum = 0
Injected packet rate average = 0.0085625
	minimum = 0.004 (at node 13)
	maximum = 0.013 (at node 0)
Accepted packet rate average = 0.00825
	minimum = 0.004 (at node 10)
	maximum = 0.013 (at node 9)
Injected flit rate average = 0.0085625
	minimum = 0.004 (at node 13)
	maximum = 0.013 (at node 0)
Accepted flit rate average= 0.00825
	minimum = 0.004 (at node 10)
	maximum = 0.013 (at node 9)
Injected packet length average = 1
Accepted packet length average = 1
Total in-flight flits = 5 (0 measured)
latency change    = 0.00102916
throughput change = 0
Class 0:
Packet latency average = 21.8108
	minimum = 7
	maximum = 62
Network latency average = 21.8108
	minimum = 7
	maximum = 62
Slowest packet = 994
Flit latency average = 21.8108
	minimum = 7
	maximum = 62
Slowest flit = 994
Fragmentation average = 0
	minimum = 0
	maximum = 0
Injected packet rate average = 0.008875
	minimum = 0.002 (at node 1)
	maximum = 0.016 (at node 10)
Accepted packet rate average = 0.00925
	minimum = 0.004 (at node 6)
	maximum = 0.016 (at node 7)
Injected flit rate average = 0.008875
	minimum = 0.002 (at node 1)
	maximum = 0.016 (at node 10)
Accepted flit rate average= 0.00925
	minimum = 0.004 (at node 6)
	maximum = 0.016 (at node 7)
Injected packet length average = 1
Accepted packet length average = 1
Total in-flight flits = 2 (0 measured)
latency change    = 0.0124948
throughput change = 0.108108
Warmed up ...Time used is 1500 cycles
Class 0:
Packet latency average = 21.3478
	minimum = 7
	maximum = 63
Network latency average = 21.3478
	minimum = 7
	maximum = 63
Slowest packet = 1064
Flit latency average = 21.3662
	minimum = 7
	maximum = 63
Slowest flit = 1064
Fragmentation average = 0
	minimum = 0
	maximum = 0
Injected packet rate average = 0.008875
	minimum = 0.002 (at node 0)
	maximum = 0.02 (at node 6)
Accepted packet rate average = 0.008875
	minimum = 0.004 (at node 6)
	maximum = 0.014 (at node 2)
Injected flit rate average = 0.008875
	minimum = 0.002 (at node 0)
	maximum = 0.02 (at node 6)
Accepted flit rate average= 0.008875
	minimum = 0.004 (at node 6)
	maximum = 0.014 (at node 2)
Injected packet length average = 1
Accepted packet length average = 1
Total in-flight flits = 2 (2 measured)
latency change    = 0.0216877
throughput change = 0.0422535
Class 0:
Packet latency average = 20.96
	minimum = 7
	maximum = 63
Network latency average = 20.96
	minimum = 7
	maximum = 63
Slowest packet = 1064
Flit latency average = 20.9737
	minimum = 7
	maximum = 63
Slowest flit = 1064
Fragmentation average = 0
	minimum = 0
	maximum = 0
Injected packet rate average = 0.009625
	minimum = 0.004 (at node 8)
	maximum = 0.016 (at node 4)
Accepted packet rate average = 0.0095
	minimum = 0.005 (at node 6)
	maximum = 0.014 (at node 5)
Injected flit rate average = 0.009625
	minimum = 0.004 (at node 8)
	maximum = 0.016 (at node 4)
Accepted flit rate average= 0.0095
	minimum = 0.005 (at node 6)
	maximum = 0.014 (at node 5)
Injected packet length average = 1
Accepted packet length average = 1
Total in-flight flits = 4 (4 measured)
latency change    = 0.0185032
throughput change = 0.0657895
Class 0:
Packet latency average = 20.843
	minimum = 7
	maximum = 63
Network latency average = 20.843
	minimum = 7
	maximum = 63
Slowest packet = 1064
Flit latency average = 20.8525
	minimum = 7
	maximum = 63
Slowest flit = 1064
Fragmentation average = 0
	minimum = 0
	maximum = 0
Injected packet rate average = 0.0101667
	minimum = 0.006 (at node 1)
	maximum = 0.016 (at node 4)
Accepted packet rate average = 0.0101667
	minimum = 0.006 (at node 6)
	maximum = 0.0166667 (at node 2)
Injected flit rate average = 0.0101667
	minimum = 0.006 (at node 1)
	maximum = 0.016 (at node 4)
Accepted flit rate average= 0.0101667
	minimum = 0.006 (at node 6)
	maximum = 0.0166667 (at node 2)
Injected packet length average = 1
Accepted packet length average = 1
Total in-flight flits = 2 (2 measured)
latency change    = 0.00561459
throughput change = 0.0655738
Class 0:
Packet latency average = 20.4756
	minimum = 7
	maximum = 63
Network latency average = 20.4756
	minimum = 7
	maximum = 63
Slowest packet = 1064
Flit latency average = 20.4848
	minimum = 7
	maximum = 63
Slowest flit = 1064
Fragmentation average = 0
	minimum = 0
	maximum = 0
Injected packet rate average = 0.0104375
	minimum = 0.007 (at node 1)
	maximum = 0.0145 (at node 4)
Accepted packet rate average = 0.0103125
	minimum = 0.007 (at node 6)
	maximum = 0.014 (at node 2)
Injected flit rate average = 0.0104375
	minimum = 0.007 (at node 1)
	maximum = 0.0145 (at node 4)
Accepted flit rate average= 0.0103125
	minimum = 0.007 (at node 6)
	maximum = 0.014 (at node 2)
Injected packet length average = 1
Accepted packet length average = 1
Total in-flight flits = 6 (6 measured)
latency change    = 0.0179416
throughput change = 0.0141414
Class 0:
Packet latency average = 20.7481
	minimum = 7
	maximum = 63
Network latency average = 20.7481
	minimum = 7
	maximum = 63
Slowest packet = 1064
Flit latency average = 20.7543
	minimum = 7
	maximum = 63
Slowest flit = 1064
Fragmentation average = 0
	minimum = 0
	maximum = 0
Injected packet rate average = 0.01015
	minimum = 0.0072 (at node 1)
	maximum = 0.0132 (at node 4)
Accepted packet rate average = 0.010175
	minimum = 0.0068 (at node 6)
	maximum = 0.0124 (at node 5)
Injected flit rate average = 0.01015
	minimum = 0.0072 (at node 1)
	maximum = 0.0132 (at node 4)
Accepted flit rate average= 0.010175
	minimum = 0.0068 (at node 6)
	maximum = 0.0124 (at node 5)
Injected packet length average = 1
Accepted packet length average = 1
Total in-flight flits = 1 (1 measured)
latency change    = 0.0131356
throughput change = 0.0135135
Class 0:
Packet latency average = 20.7489
	minimum = 7
	maximum = 63
Network latency average = 20.7489
	minimum = 7
	maximum = 63
Slowest packet = 1064
Flit latency average = 20.7542
	minimum = 7
	maximum = 63
Slowest flit = 1064
Fragmentation average = 0
	minimum = 0
	maximum = 0
Injected packet rate average = 0.0100417
	minimum = 0.00733333 (at node 8)
	maximum = 0.0123333 (at node 6)
Accepted packet rate average = 0.00991667
	minimum = 0.00733333 (at node 6)
	maximum = 0.013 (at node 5)
Injected flit rate average = 0.0100417
	minimum = 0.00733333 (at node 8)
	maximum = 0.0123333 (at node 6)
Accepted flit rate average= 0.00991667
	minimum = 0.00733333 (at node 6)
	maximum = 0.013 (at node 5)
Injected packet length average = 1
Accepted packet length average = 1
Total in-flight flits = 8 (8 measured)
latency change    = 3.84116e-05
throughput change = 0.0260504
Draining all recorded packets ...
Draining remaining packets ...
Time taken is 4580 cycles
Class 0:
Packet latency average = 20.5769
	minimum = 7
	maximum = 47
Network latency average = 20.5769
	minimum = 7
	maximum = 47
Slowest packet = 1574
Flit latency average = 20.5769
	minimum = 7
	maximum = 47
Slowest flit = 1574
Fragmentation average = 0
	minimum = 0
	maximum = 0
Injected packet rate average = 0.010125
	minimum = 0.006 (at node 0)
	maximum = 0.02 (at node 2)
Accepted packet rate average = 0.00975
	minimum = 0 (at node 9)
	maximum = 0.024 (at node 15)
Injected flit rate average = 0.010125
	minimum = 0.006 (at node 0)
	maximum = 0.02 (at node 2)
Accepted flit rate average= 0.00975
	minimum = 0 (at node 9)
	maximum = 0.024 (at node 15)
Injected packet length average = 1
Accepted packet length average = 1
Total in-flight flits = 3 (0 measured)
latency change    = 1
throughput change = 1
Class 0:
Packet latency average = 21.3413
	minimum = 7
	maximum = 47
Network latency average = 21.3413
	minimum = 7
	maximum = 47
Slowest packet = 1574
Flit latency average = 21.3413
	minimum = 7
	maximum = 47
Slowest flit = 1574
Fragmentation average = 0
	minimum = 0
	maximum = 0
Injected packet rate average = 0.0105625
	minimum = 0.005 (at node 8)
	maximum = 0.017 (at node 6)
Accepted packet rate average = 0.0104375
	minimum = 0.005 (at node 9)
	maximum = 0.019 (at node 15)
Injected flit rate average = 0.0105625
	minimum = 0.005 (at node 8)
	maximum = 0.017 (at node 6)
Accepted flit rate average= 0.0104375
	minimum = 0.005 (at node 9)
	maximum = 0.019 (at node 15)
Injected packet length average = 1
Accepted packet length average = 1
Total in-flight flits = 2 (0 measured)
latency change    = 0.0358176
throughput change = 0.0658683
Class 0:
Packet latency average = 22.0429
	minimum = 7
	maximum = 52
Network latency average = 22.0429
	minimum = 7
	maximum = 52
Slowest packet = 1765
Flit latency average = 22.0429
	minimum = 7
	maximum = 52
Slowest flit = 1765
Fragmentation average = 0
	minimum = 0
	maximum = 0
Injected packet rate average = 0.008875
	minimum = 0.002 (at node 0)
	maximum = 0.016 (at node 1)
Accepted packet rate average = 0.00875
	minimum = 0.002 (at node 9)
	maximum = 0.018 (at node 0)
Injected flit rate average = 0.008875
	minimum = 0.002 (at node 0)
	maximum = 0.016 (at node 1)
Accepted flit rate average= 0.00875
	minimum = 0.002 (at node 9)
	maximum = 0.018 (at node 0)
Injected packet length average = 1
Accepted packet length average = 1
Total in-flight flits = 3 (0 measured)
latency change    = 0.0318262
throughput change = 0.192857
Warmed up ...Time used is 1500 cycles
Class 0:
Packet latency average = 22.3231
	minimum = 7
	maximum = 47
Network latency average = 22.3231
	minimum = 7
	maximum = 47
Slowest packet = 1805
Flit latency average = 22.5294
	minimum = 7
	maximum = 47
Slowest flit = 1805
Fragmentation average = 0
	minimum = 0
	maximum = 0
Injected packet rate average = 0.0085
	minimum = 0.002 (at node 3)
	maximum = 0.02 (at node 9)
Accepted packet rate average = 0.0085
	minimum = 0 (at node 4)
	maximum = 0.02 (at node 0)
Injected flit rate average = 0.0085
	minimum = 0.002 (at node 3)
	maximum = 0.02 (at node 9)
Accepted flit rate average= 0.0085
	minimum = 0 (at node 4)
	maximum = 0.02 (at node 0)
Injected packet length average = 1
Accepted packet length average = 1
Total in-flight flits = 3 (3 measured)
latency change    = 0.0125529
throughput change = 0.0294118
Class 0:
Packet latency average = 21.6
	minimum = 7
	maximum = 47
Network latency average = 21.6
	minimum = 7
	maximum = 47
Slowest packet = 1805
Flit latency average = 21.7218
	minimum = 7
	maximum = 47
Slowest flit = 1805
Fragmentation average = 0
	minimum = 0
	maximum = 0
Injected packet rate average = 0.00825
	minimum = 0.005 (at node 3)
	maximum = 0.017 (at node 9)
Accepted packet rate average = 0.0083125
	minimum = 0.003 (at node 4)
	maximum = 0.014 (at node 2)
Injected flit rate average = 0.00825
	minimum = 0.005 (at node 3)
	maximum = 0.017 (at node 9)
Accepted flit rate average= 0.0083125
	minimum = 0.003 (at node 4)
	maximum = 0.014 (at node 2)
Injected packet length average = 1
Accepted packet length average = 1
Total in-flight flits = 2 (2 measured)
latency change    = 0.0334758
throughput change = 0.0225564
Class 0:
Packet latency average = 22.165
	minimum = 7
	maximum = 52
Network latency average = 22.165
	minimum = 7
	maximum = 52
Slowest packet = 1947
Flit latency average = 22.2365
	minimum = 7
	maximum = 52
Slowest flit = 1947
Fragmentation average = 0
	minimum = 0
	maximum = 0
Injected packet rate average = 0.00841667
	minimum = 0.00466667 (at node 7)
	maximum = 0.014 (at node 9)
Accepted packet rate average = 0.00845833
	minimum = 0.004 (at node 5)
	maximum = 0.0126667 (at node 0)
Injected flit rate average = 0.00841667
	minimum = 0.00466667 (at node 7)
	maximum = 0.014 (at node 9)
Accepted flit rate average= 0.00845833
	minimum = 0.004 (at node 5)
	maximum = 0.0126667 (at node 0)
Injected packet length average = 1
Accepted packet length average = 1
Total in-flight flits = 2 (2 measured)
latency change    = 0.0254906
throughput change = 0.0172414
Draining all recorded packets ...
Draining remaining packets ...
Time taken is 3007 cycles
Class 0:
Packet latency average = 21.8696
	minimum = 7
	maximum = 47
Network latency average = 21.8696
	minimum = 7
	maximum = 47
Slowest packet = 2021
Flit latency average = 21.8696
	minimum = 7
	maximum = 47
Slowest flit = 2021
Fragmentation average = 0
	minimum = 0
	maximum = 0
Injected packet rate average = 0.012
	minimum = 0.004 (at node 9)
	maximum = 0.022 (at node 7)
Accepted packet rate average = 0.0115
	minimum = 0.006 (at node 5)
	maximum = 0.018 (at node 8)
Injected flit rate average = 0.012
	minimum = 0.004 (at node 9)
	maximum = 0.022 (at node 7)
Accepted flit rate average= 0.0115
	minimum = 0.006 (at node 5)
	maximum = 0.018 (at node 8)
Injected packet length average = 1
Accepted packet length average = 1
Total in-flight flits = 4 (0 measured)
latency change    = 1
throughput change = 1
Class 0:
Packet latency average = 21.7812
	minimum = 7
	maximum = 73
Network latency average = 21.7812
	minimum = 7
	maximum = 73
Slowest packet = 2074
Flit latency average = 21.7812
	minimum = 7
	maximum = 73
Slowest flit = 2074
Fragmentation average = 0
	minimum = 0
	maximum = 0
Injected packet rate average = 0.010125
	minimum = 0.006 (at node 6)
	maximum = 0.014 (at node 7)
Accepted packet rate average = 0.01
	minimum = 0.005 (at node 15)
	maximum = 0.016 (at node 2)
Injected flit rate average = 0.010125
	minimum = 0.006 (at node 6)
	maximum = 0.014 (at node 7)
Accepted flit rate average= 0.01
	minimum = 0.005 (at node 15)
	maximum = 0.016 (at node 2)
Injected packet length average = 1
Accepted packet length average = 1
Total in-flight flits = 2 (0 measured)
latency change    = 0.00405464
throughput change = 0.15
Class 0:
Packet latency average = 22.7833
	minimum = 7
	maximum = 57
Network latency average = 22.7833
	minimum = 7
	maximum = 57
Slowest packet = 2156
Flit latency average = 22.7833
	minimum = 7
	maximum = 57
Slowest flit = 2156
Fragmentation average = 0
	minimum = 0
	maximum = 0
Injected packet rate average = 0.007625
	minimum = 0.004 (at node 2)
	maximum = 0.016 (at node 13)
Accepted packet rate average = 0.0075
	minimum = 0.002 (at node 7)
	maximum = 0.014 (at node 12)
Injected flit rate average = 0.007625
	minimum = 0.004 (at node 2)
	maximum = 0.016 (at node 13)
Accepted flit rate average= 0.0075
	minimum = 0.002 (at node 7)
	maximum = 0.014 (at node 12)
Injected packet length average = 1
Accepted packet length average = 1
Total in-flight flits = 3 (0 measured)
latency change    = 0.0439832
throughput change = 0.333333
Warmed up ...Time used is 1500 cycles
Class 0:
Packet latency average = 21.0423
	minimum = 7
	maximum = 47
Network latency average = 21.0423
	minimum = 7
	maximum = 47
Slowest packet = 2273
Flit latency average = 20.8108
	minimum = 7
	maximum = 47
Slowest flit = 2273
Fragmentation average = 0
	minimum = 0
	maximum = 0
Injected packet rate average = 0.009125
	minimum = 0.002 (at node 12)
	maximum = 0.018 (at node 6)
Accepted packet rate average = 0.00925
	minimum = 0.004 (at node 13)
	maximum = 0.016 (at node 9)
Injected flit rate average = 0.009125
	minimum = 0.002 (at node 12)
	maximum = 0.018 (at node 6)
Accepted flit rate average= 0.00925
	minimum = 0.004 (at node 13)
	maximum = 0.016 (at node 9)
Injected packet length average = 1
Accepted packet length average = 1
Total in-flight flits = 2 (2 measured)
latency change    = 0.0827421
throughput change = 0.189189
Class 0:
Packet latency average = 21.7315
	minimum = 7
	maximum = 52
Network latency average = 21.7315
	minimum = 7
	maximum = 52
Slowest packet = 2325
Flit latency average = 21.6053
	minimum = 7
	maximum = 52
Slowest flit = 2325
Fragmentation average = 0
	minimum = 0
	maximum = 0
Injected packet rate average = 0.0095625
	minimum = 0.006 (at node 3)
	maximum = 0.015 (at node 6)
Accepted packet rate average = 0.0095
	minimum = 0.004 (at node 12)
	maximum = 0.015 (at node 1)
Injected flit rate average = 0.0095625
	minimum = 0.006 (at node 3)
	maximum = 0.015 (at node 6)
Accepted flit rate average= 0.0095
	minimum = 0.004 (at node 12)
	maximum = 0.015 (at node 1)
Injected packet length average = 1
Accepted packet length average = 1
Total in-flight flits = 4 (4 measured)
latency change    = 0.0317184
throughput change = 0.0263158
Class 0:
Packet latency average = 21.987
	minimum = 7
	maximum = 60
Network latency average = 21.987
	minimum = 7
	maximum = 60
Slowest packet = 2389
Flit latency average = 21.9013
	minimum = 7
	maximum = 60
Slowest flit = 2389
Fragmentation average = 0
	minimum = 0
	maximum = 0
Injected packet rate average = 0.00958333
	minimum = 0.00666667 (at node 2)
	maximum = 0.012 (at node 8)
Accepted packet rate average = 0.00970833
	minimum = 0.00333333 (at node 12)
	maximum = 0.016 (at node 1)
Injected flit rate average = 0.00958333
	minimum = 0.00666667 (at node 2)
	maximum = 0.012 (at node 8)
Accepted flit rate average= 0.00970833
	minimum = 0.00333333 (at node 12)
	maximum = 0.016 (at node 1)
Injected packet length average = 1
Accepted packet length average = 1
Total in-flight flits = 0 (0 measured)
latency change    = 0.0116166
throughput change = 0.0214592
Class 0:
Packet latency average = 22.1967
	minimum = 7
	maximum = 60
Network latency average = 22.1967
	minimum = 7
	maximum = 60
Slowest packet = 2389
Flit latency average = 22.1299
	minimum = 7
	maximum = 60
Slowest flit = 2389
Fragmentation average = 0
	minimum = 0
	maximum = 0
Injected packet rate average = 0.00959375
	minimum = 0.0075 (at node 5)
	maximum = 0.011 (at node 4)
Accepted packet rate average = 0.009625
	minimum = 0.0055 (at node 12)
	maximum = 0.0155 (at node 1)
Injected flit rate average = 0.00959375
	minimum = 0.0075 (at node 5)
	maximum = 0.011 (at node 4)
Accepted flit rate average= 0.009625
	minimum = 0.0055 (at node 12)
	maximum = 0.0155 (at node 1)
Injected packet length average = 1
Accepted packet length average = 1
Total in-flight flits = 2 (2 measured)
latency change    = 0.00945026
throughput change = 0.00865801
Draining all recorded packets ...
Draining remaining packets ...
Time taken is 3553 cycles
Class 0:
Packet latency average = 20.1944
	minimum = 7
	maximum = 47
Network latency average = 20.1944
	minimum = 7
	maximum = 47
Slowest packet = 2528
Flit latency average = 20.1944
	minimum = 7
	maximum = 47
Slowest flit = 2528
Fragmentation average = 0
	minimum = 0
	maximum = 0
Injected packet rate average = 0.009125
	minimum = 0.004 (at node 0)
	maximum = 0.016 (at node 15)
Accepted packet rate average = 0.009
	minimum = 0.004 (at node 0)
	maximum = 0.014 (at node 4)
Injected flit rate average = 0.009125
	minimum = 0.004 (at node 0)
	maximum = 0.016 (at node 15)
Accepted flit rate average= 0.009
	minimum = 0.004 (at node 0)
	maximum = 0.014 (at node 4)
Injected packet length average = 1
Accepted packet length average = 1
Total in-flight flits = 1 (0 measured)
latency change    = 1
throughput change = 1
Class 0:
Packet latency average = 21.097
	minimum = 7
	maximum = 52
Network latency average = 21.097
	minimum = 7
	maximum = 52
Slowest packet = 2680
Flit latency average = 21.097
	minimum = 7
	maximum = 52
Slowest flit = 2680
Fragmentation average = 0
	minimum = 0
	maximum = 0
Injected packet rate average = 0.0103125
	minimum = 0.006 (at node 3)
	maximum = 0.016 (at node 9)
Accepted packet rate average = 0.0103125
	minimum = 0.005 (at node 0)
	maximum = 0.013 (at node 1)
Injected flit rate average = 0.0103125
	minimum = 0.006 (at node 3)
	maximum = 0.016 (at node 9)
Accepted flit rate average= 0.0103125
	minimum = 0.005 (at node 0)
	maximum = 0.013 (at node 1)
Injected packet length average = 1
Accepted packet length average = 1
Total in-flight flits = 0 (0 measured)
latency change    = 0.0427799
throughput change = 0.127273
Class 0:
Packet latency average = 21.0286
	minimum = 7
	maximum = 52
Network latency average = 21.0286
	minimum = 7
	maximum = 52
Slowest packet = 2720
Flit latency average = 21.0286
	minimum = 7
	maximum = 52
Slowest flit = 2720
Fragmentation average = 0
	minimum = 0
	maximum = 0
Injected packet rate average = 0.00925
	minimum = 0.004 (at node 5)
	maximum = 0.016 (at node 15)
Accepted packet rate average = 0.00875
	minimum = 0.006 (at node 7)
	maximum = 0.012 (at node 2)
Injected flit rate average = 0.00925
	minimum = 0.004 (at node 5)
	maximum = 0.016 (at node 15)
Accepted flit rate average= 0.00875
	minimum = 0.006 (at node 7)
	maximum = 0.012 (at node 2)
Injected packet length average = 1
Accepted packet length average = 1
Total in-flight flits = 4 (0 measured)
latency change    = 0.00325264
throughput change = 0.178571
Warmed up ...Time used is 1500 cycles
Class 0:
Packet latency average = 22.6098
	minimum = 7
	maximum = 47
Network latency average = 22.6098
	minimum = 7
	maximum = 47
Slowest packet = 2786
Flit latency average = 23.3953
	minimum = 7
	maximum = 57
Slowest flit = 2758
Fragmentation average = 0
	minimum = 0
	maximum = 0
Injected packet rate average = 0.0105
	minimum = 0.004 (at node 12)
	maximum = 0.022 (at node 10)
Accepted packet rate average = 0.01075
	minimum = 0.006 (at node 2)
	maximum = 0.02 (at node 7)
Injected flit rate average = 0.0105
	minimum = 0.004 (at node 12)
	maximum = 0.022 (at node 10)
Accepted flit rate average= 0.01075
	minimum = 0.006 (at node 2)
	maximum = 0.02 (at node 7)
Injected packet length average = 1
Accepted packet length average = 1
Total in-flight flits = 2 (2 measured)
latency change    = 0.0699337
throughput change = 0.186047
Class 0:
Packet latency average = 22.325
	minimum = 7
	maximum = 53
Network latency average = 22.325
	minimum = 7
	maximum = 53
Slowest packet = 2863
Flit latency average = 22.7439
	minimum = 7
	maximum = 57
Slowest flit = 2758
Fragmentation average = 0
	minimum = 0
	maximum = 0
Injected packet rate average = 0.010125
	minimum = 0.005 (at node 8)
	maximum = 0.016 (at node 14)
Accepted packet rate average = 0.01025
	minimum = 0.004 (at node 2)
	maximum = 0.018 (at node 7)
Injected flit rate average = 0.010125
	minimum = 0.005 (at node 8)
	maximum = 0.016 (at node 14)
Accepted flit rate average= 0.01025
	minimum = 0.004 (at node 2)
	maximum = 0.018 (at node 7)
Injected packet length average = 1
Accepted packet length average = 1
Total in-flight flits = 2 (2 measured)
latency change    = 0.012755
throughput change = 0.0487805
Class 0:
Packet latency average = 21.5691
	minimum = 7
	maximum = 53
Network latency average = 21.5691
	minimum = 7
	maximum = 53
Slowest packet = 2863
Flit latency average = 21.856
	minimum = 7
	maximum = 57
Slowest flit = 2758
Fragmentation average = 0
	minimum = 0
	maximum = 0
Injected packet rate average = 0.0103333
	minimum = 0.006 (at node 1)
	maximum = 0.0146667 (at node 7)
Accepted packet rate average = 0.0104167
	minimum = 0.00533333 (at node 3)
	maximum = 0.0166667 (at node 7)
Injected flit rate average = 0.0103333
	minimum = 0.006 (at node 1)
	maximum = 0.0146667 (at node 7)
Accepted flit rate average= 0.0104167
	minimum = 0.00533333 (at node 3)
	maximum = 0.0166667 (at node 7)
Injected packet length average = 1
Accepted packet length average = 1
Total in-flight flits = 2 (2 measured)
latency change    = 0.0350452
throughput change = 0.016
Class 0:
Packet latency average = 21.0363
	minimum = 7
	maximum = 53
Network latency average = 21.0363
	minimum = 7
	maximum = 53
Slowest packet = 2863
Flit latency average = 21.2567
	minimum = 7
	maximum = 57
Slowest flit = 2758
Fragmentation average = 0
	minimum = 0
	maximum = 0
Injected packet rate average = 0.0104063
	minimum = 0.007 (at node 8)
	maximum = 0.0145 (at node 7)
Accepted packet rate average = 0.0104688
	minimum = 0.006 (at node 3)
	maximum = 0.014 (at node 7)
Injected flit rate average = 0.0104063
	minimum = 0.007 (at node 8)
	maximum = 0.0145 (at node 7)
Accepted flit rate average= 0.0104688
	minimum = 0.006 (at node 3)
	maximum = 0.014 (at node 7)
Injected packet length average = 1
Accepted packet length average = 1
Total in-flight flits = 2 (2 measured)
latency change    = 0.0253302
throughput change = 0.00497512
Draining all recorded packets ...
Draining remaining packets ...
Time taken is 3538 cycles
Class 0:
Packet latency average = 22.1733
	minimum = 7
	maximum = 52
Network latency average = 22.1733
	minimum = 7
	maximum = 52
Slowest packet = 3140
Flit latency average = 22.1733
	minimum = 7
	maximum = 52
Slowest flit = 3140
Fragmentation average = 0
	minimum = 0
	maximum = 0
Injected packet rate average = 0.01
	minimum = 0.002 (at node 0)
	maximum = 0.02 (at node 4)
Accepted packet rate average = 0.009375
	minimum = 0.002 (at node 9)
	maximum = 0.02 (at node 11)
Injected flit rate average = 0.01
	minimum = 0.002 (at node 0)
	maximum = 0.02 (at node 4)
Accepted flit rate average= 0.009375
	minimum = 0.002 (at node 9)
	maximum = 0.02 (at node 11)
Injected packet length average = 1
Accepted packet length average = 1
Total in-flight flits = 5 (0 measured)
latency change    = 1
throughput change = 1
Class 0:
Packet latency average = 22.0123
	minimum = 7
	maximum = 52
Network latency average = 22.0123
	minimum = 7
	maximum = 52
Slowest packet = 3140
Flit latency average = 22.0123
	minimum = 7
	maximum = 52
Slowest flit = 3140
Fragmentation average = 0
	minimum = 0
	maximum = 0
Injected packet rate average = 0.01025
	minimum = 0.001 (at node 0)
	maximum = 0.019 (at node 4)
Accepted packet rate average = 0.010125
	minimum = 0.004 (at node 4)
	maximum = 0.016 (at node 11)
Injected flit rate average = 0.01025
	minimum = 0.001 (at node 0)
	maximum = 0.019 (at node 4)
Accepted flit rate average= 0.010125
	minimum = 0.004 (at node 4)
	maximum = 0.016 (at node 11)
Injected packet length average = 1
Accepted packet length average = 1
Total in-flight flits = 2 (0 measured)
latency change    = 0.00731352
throughput change = 0.0740741
Class 0:
Packet latency average = 23.791
	minimum = 7
	maximum = 54
Network latency average = 23.791
	minimum = 7
	maximum = 54
Slowest packet = 3317
Flit latency average = 23.791
	minimum = 7
	maximum = 54
Slowest flit = 3317
Fragmentation average = 0
	minimum = 0
	maximum = 0
Injected packet rate average = 0.0085
	minimum = 0.002 (at node 4)
	maximum = 0.016 (at node 13)
Accepted packet rate average = 0.008375
	minimum = 0 (at node 9)
	maximum = 0.018 (at node 3)
Injected flit rate average = 0.0085
	minimum = 0.002 (at node 4)
	maximum = 0.016 (at node 13)
Accepted flit rate average= 0.008375
	minimum = 0 (at node 9)
	maximum = 0.018 (at node 3)
Injected packet length average = 1
Accepted packet length average = 1
Total in-flight flits = 3 (0 measured)
latency change    = 0.0747634
throughput change = 0.208955
Warmed up ...Time used is 1500 cycles
Class 0:
Packet latency average = 22.2024
	minimum = 7
	maximum = 58
Network latency average = 22.2024
	minimum = 7
	maximum = 58
Slowest packet = 3335
Flit latency average = 22.5747
	minimum = 7
	maximum = 60
Slowest flit = 3321
Fragmentation average = 0
	minimum = 0
	maximum = 0
Injected packet rate average = 0.01125
	minimum = 0.004 (at node 6)
	maximum = 0.026 (at node 5)
Accepted packet rate average = 0.010875
	minimum = 0.006 (at node 1)
	maximum = 0.018 (at node 7)
Injected flit rate average = 0.01125
	minimum = 0.004 (at node 6)
	maximum = 0.026 (at node 5)
Accepted flit rate average= 0.010875
	minimum = 0.006 (at node 1)
	maximum = 0.018 (at node 7)
Injected packet length average = 1
Accepted packet length average = 1
Total in-flight flits = 6 (6 measured)
latency change    = 0.0715538
throughput change = 0.229885
Class 0:
Packet latency average = 22.3815
	minimum = 7
	maximum = 62
Network latency average = 22.3815
	minimum = 7
	maximum = 62
Slowest packet = 3474
Flit latency average = 22.5625
	minimum = 7
	maximum = 62
Slowest flit = 3474
Fragmentation average = 0
	minimum = 0
	maximum = 0
Injected packet rate average = 0.0110625
	minimum = 0.007 (at node 0)
	maximum = 0.019 (at node 13)
Accepted packet rate average = 0.011
	minimum = 0.008 (at node 1)
	maximum = 0.014 (at node 5)
Injected flit rate average = 0.0110625
	minimum = 0.007 (at node 0)
	maximum = 0.019 (at node 13)
Accepted flit rate average= 0.011
	minimum = 0.008 (at node 1)
	maximum = 0.014 (at node 5)
Injected packet length average = 1
Accepted packet length average = 1
Total in-flight flits = 4 (4 measured)
latency change    = 0.00800312
throughput change = 0.0113636
Class 0:
Packet latency average = 21.7103
	minimum = 7
	maximum = 62
Network latency average = 21.7103
	minimum = 7
	maximum = 62
Slowest packet = 3474
Flit latency average = 21.8431
	minimum = 7
	maximum = 62
Slowest flit = 3474
Fragmentation average = 0
	minimum = 0
	maximum = 0
Injected packet rate average = 0.010625
	minimum = 0.00733333 (at node 7)
	maximum = 0.014 (at node 13)
Accepted packet rate average = 0.010625
	minimum = 0.006 (at node 12)
	maximum = 0.0133333 (at node 0)
Injected flit rate average = 0.010625
	minimum = 0.00733333 (at node 7)
	maximum = 0.014 (at node 13)
Accepted flit rate average= 0.010625
	minimum = 0.006 (at node 12)
	maximum = 0.0133333 (at node 0)
Injected packet length average = 1
Accepted packet length average = 1
Total in-flight flits = 3 (3 measured)
latency change    = 0.0309155
throughput change = 0.0352941
Class 0:
Packet latency average = 21.5671
	minimum = 7
	maximum = 70
Network latency average = 21.5671
	minimum = 7
	maximum = 70
Slowest packet = 3593
Flit latency average = 21.6707
	minimum = 7
	maximum = 70
Slowest flit = 3593
Fragmentation average = 0
	minimum = 0
	maximum = 0
Injected packet rate average = 0.0103125
	minimum = 0.0065 (at node 7)
	maximum = 0.013 (at node 1)
Accepted packet rate average = 0.0103438
	minimum = 0.0055 (at node 12)
	maximum = 0.014 (at node 2)
Injected flit rate average = 0.0103125
	minimum = 0.0065 (at node 7)
	maximum = 0.013 (at node 1)
Accepted flit rate average= 0.0103438
	minimum = 0.0055 (at node 12)
	maximum = 0.014 (at node 2)
Injected packet length average = 1
Accepted packet length average = 1
Total in-flight flits = 2 (2 measured)
latency change    = 0.0066418
throughput change = 0.0271903
Draining all recorded packets ...
Draining remaining packets ...
Time taken is 3574 cycles
Class 0:
Packet latency average = 23.4699
	minimum = 7
	maximum = 53
Network latency average = 23.4699
	minimum = 7
	maximum = 53
Slowest packet = 3708
Flit latency average = 23.4699
	minimum = 7
	maximum = 53
Slowest flit = 3708
Fragmentation average = 0
	minimum = 0
	maximum = 0
Injected packet rate average = 0.01075
	minimum = 0.004 (at node 9)
	maximum = 0.02 (at node 7)
Accepted packet rate average = 0.010375
	minimum = 0.002 (at node 5)
	maximum = 0.014 (at node 0)
Injected flit rate average = 0.01075
	minimum = 0.004 (at node 9)
	maximum = 0.02 (at node 7)
Accepted flit rate average= 0.010375
	minimum = 0.002 (at node 5)
	maximum = 0.014 (at node 0)
Injected packet length average = 1
Accepted packet length average = 1
Total in-flight flits = 3 (0 measured)
latency change    = 1
throughput change = 1
Class 0:
Packet latency average = 22.3924
	minimum = 7
	maximum = 53
Network latency average = 22.3924
	minimum = 7
	maximum = 53
Slowest packet = 3708
Flit latency average = 22.3924
	minimum = 7
	maximum = 53
Slowest flit = 3708
Fragmentation average = 0
	minimum = 0
	maximum = 0
Injected packet rate average = 0.0103125
	minimum = 0.004 (at node 9)
	maximum = 0.017 (at node 7)
Accepted packet rate average = 0.009875
	minimum = 0.005 (at node 5)
	maximum = 0.013 (at node 9)
Injected flit rate average = 0.0103125
	minimum = 0.004 (at node 9)
	maximum = 0.017 (at node 7)
Accepted flit rate average= 0.009875
	minimum = 0.005 (at node 5)
	maximum = 0.013 (at node 9)
Injected packet length average = 1
Accepted packet length average = 1
Total in-flight flits = 7 (0 measured)
latency change    = 0.0481179
throughput change = 0.0506329
Class 0:
Packet latency average = 22.6173
	minimum = 7
	maximum = 52
Network latency average = 22.6173
	minimum = 7
	maximum = 52
Slowest packet = 3822
Flit latency average = 22.6173
	minimum = 7
	maximum = 52
Slowest flit = 3822
Fragmentation average = 0
	minimum = 0
	maximum = 0
Injected packet rate average = 0.0095
	minimum = 0.002 (at node 9)
	maximum = 0.018 (at node 1)
Accepted packet rate average = 0.010125
	minimum = 0.004 (at node 8)
	maximum = 0.02 (at node 2)
Injected flit rate average = 0.0095
	minimum = 0.002 (at node 9)
	maximum = 0.018 (at node 1)
Accepted flit rate average= 0.010125
	minimum = 0.004 (at node 8)
	maximum = 0.02 (at node 2)
Injected packet length average = 1
Accepted packet length average = 1
Total in-flight flits = 2 (0 measured)
latency change    = 0.00994279
throughput change = 0.0246914
Warmed up ...Time used is 1500 cycles
Class 0:
Packet latency average = 18.8657
	minimum = 7
	maximum = 46
Network latency average = 18.8657
	minimum = 7
	maximum = 46
Slowest packet = 3914
Flit latency average = 18.9565
	minimum = 7
	maximum = 46
Slowest flit = 3914
Fragmentation average = 0
	minimum = 0
	maximum = 0
Injected packet rate average = 0.009125
	minimum = 0.004 (at node 8)
	maximum = 0.016 (at node 5)
Accepted packet rate average = 0.008625
	minimum = 0.002 (at node 12)
	maximum = 0.014 (at node 4)
Injected flit rate average = 0.009125
	minimum = 0.004 (at node 8)
	maximum = 0.016 (at node 5)
Accepted flit rate average= 0.008625
	minimum = 0.002 (at node 12)
	maximum = 0.014 (at node 4)
Injected packet length average = 1
Accepted packet length average = 1
Total in-flight flits = 6 (6 measured)
latency change    = 0.198859
throughput change = 0.173913
Class 0:
Packet latency average = 21
	minimum = 7
	maximum = 52
Network latency average = 21
	minimum = 7
	maximum = 52
Slowest packet = 3965
Flit latency average = 21.0143
	minimum = 7
	maximum = 52
Slowest flit = 3965
Fragmentation average = 0
	minimum = 0
	maximum = 0
Injected packet rate average = 0.0088125
	minimum = 0.006 (at node 4)
	maximum = 0.013 (at node 5)
Accepted packet rate average = 0.00875
	minimum = 0.004 (at node 11)
	maximum = 0.015 (at node 4)
Injected flit rate average = 0.0088125
	minimum = 0.006 (at node 4)
	maximum = 0.013 (at node 5)
Accepted flit rate average= 0.00875
	minimum = 0.004 (at node 11)
	maximum = 0.015 (at node 4)
Injected packet length average = 1
Accepted packet length average = 1
Total in-flight flits = 3 (3 measured)
latency change    = 0.101635
throughput change = 0.0142857
Class 0:
Packet latency average = 20.8957
	minimum = 7
	maximum = 52
Network latency average = 20.8957
	minimum = 7
	maximum = 52
Slowest packet = 3965
Flit latency average = 20.9061
	minimum = 7
	maximum = 52
Slowest flit = 3965
Fragmentation average = 0
	minimum = 0
	maximum = 0
Injected packet rate average = 0.00895833
	minimum = 0.00666667 (at node 4)
	maximum = 0.0133333 (at node 10)
Accepted packet rate average = 0.008875
	minimum = 0.006 (at node 11)
	maximum = 0.0126667 (at node 2)
Injected flit rate average = 0.00895833
	minimum = 0.00666667 (at node 4)
	maximum = 0.0133333 (at node 10)
Accepted flit rate average= 0.008875
	minimum = 0.006 (at node 11)
	maximum = 0.0126667 (at node 2)
Injected packet length average = 1
Accepted packet length average = 1
Total in-flight flits = 4 (4 measured)
latency change    = 0.00498979
throughput change = 0.0140845
Class 0:
Packet latency average = 20.9612
	minimum = 7
	maximum = 52
Network latency average = 20.9612
	minimum = 7
	maximum = 52
Slowest packet = 3965
Flit latency average = 20.9678
	minimum = 7
	maximum = 52
Slowest flit = 3965
Fragmentation average = 0
	minimum = 0
	maximum = 0
Injected packet rate average = 0.00975
	minimum = 0.007 (at node 2)
	maximum = 0.0135 (at node 10)
Accepted packet rate average = 0.00971875
	minimum = 0.0065 (at node 9)
	maximum = 0.0125 (at node 4)
Injected flit rate average = 0.00975
	minimum = 0.007 (at node 2)
	maximum = 0.0135 (at node 10)
Accepted flit rate average= 0.00971875
	minimum = 0.0065 (at node 9)
	maximum = 0.0125 (at node 4)
Injected packet length average = 1
Accepted packet length average = 1
Total in-flight flits = 3 (3 measured)
latency change    = 0.00312151
throughput change = 0.0868167
Class 0:
Packet latency average = 20.846
	minimum = 7
	maximum = 58
Network latency average = 20.846
	minimum = 7
	maximum = 58
Slowest packet = 4241
Flit latency average = 20.8518
	minimum = 7
	maximum = 58
Slowest flit = 4241
Fragmentation average = 0
	minimum = 0
	maximum = 0
Injected packet rate average = 0.010025
	minimum = 0.0072 (at node 2)
	maximum = 0.0152 (at node 7)
Accepted packet rate average = 0.00995
	minimum = 0.0072 (at node 9)
	maximum = 0.0136 (at node 2)
Injected flit rate average = 0.010025
	minimum = 0.0072 (at node 2)
	maximum = 0.0152 (at node 7)
Accepted flit rate average= 0.00995
	minimum = 0.0072 (at node 9)
	maximum = 0.0136 (at node 2)
Injected packet length average = 1
Accepted packet length average = 1
Total in-flight flits = 5 (5 measured)
latency change    = 0.00552651
throughput change = 0.0232412
Class 0:
Packet latency average = 21.0732
	minimum = 7
	maximum = 58
Network latency average = 21.0732
	minimum = 7
	maximum = 58
Slowest packet = 4241
Flit latency average = 21.0769
	minimum = 7
	maximum = 58
Slowest flit = 4241
Fragmentation average = 0
	minimum = 0
	maximum = 0
Injected packet rate average = 0.0102917
	minimum = 0.00766667 (at node 4)
	maximum = 0.0146667 (at node 7)
Accepted packet rate average = 0.0102917
	minimum = 0.007 (at node 9)
	maximum = 0.0136667 (at node 8)
Injected flit rate average = 0.0102917
	minimum = 0.00766667 (at node 4)
	maximum = 0.0146667 (at node 7)
Accepted flit rate average= 0.0102917
	minimum = 0.007 (at node 9)
	maximum = 0.0136667 (at node 8)
Injected packet length average = 1
Accepted packet length average = 1
Total in-flight flits = 2 (2 measured)
latency change    = 0.010782
throughput change = 0.0331984
Class 0:
Packet latency average = 21.1696
	minimum = 7
	maximum = 58
Network latency average = 21.1696
	minimum = 7
	maximum = 58
Slowest packet = 4241
Flit latency average = 21.1725
	minimum = 7
	maximum = 58
Slowest flit = 4241
Fragmentation average = 0
	minimum = 0
	maximum = 0
Injected packet rate average = 0.0102321
	minimum = 0.00771429 (at node 0)
	maximum = 0.0145714 (at node 7)
Accepted packet rate average = 0.01025
	minimum = 0.00714286 (at node 9)
	maximum = 0.0131429 (at node 8)
Injected flit rate average = 0.0102321
	minimum = 0.00771429 (at node 0)
	maximum = 0.0145714 (at node 7)
Accepted flit rate average= 0.01025
	minimum = 0.00714286 (at node 9)
	maximum = 0.0131429 (at node 8)
Injected packet length average = 1
Accepted packet length average = 1
Total in-flight flits = 1 (1 measured)
latency change    = 0.00455416
throughput change = 0.00406504
Draining all recorded packets ...
Draining remaining packets ...
Time taken is 5030 cycles
Class 0:
Packet latency average = 20.7123
	minimum = 7
	maximum = 57
Network latency average = 20.7123
	minimum = 7
	maximum = 57
Slowest packet = 4485
Flit latency average = 20.7123
	minimum = 7
	maximum = 57
Slowest flit = 4485
Fragmentation average = 0
	minimum = 0
	maximum = 0
Injected packet rate average = 0.00975
	minimum = 0.004 (at node 13)
	maximum = 0.014 (at node 1)
Accepted packet rate average = 0.009125
	minimum = 0.002 (at node 3)
	maximum = 0.016 (at node 15)
Injected flit rate average = 0.00975
	minimum = 0.004 (at node 13)
	maximum = 0.014 (at node 1)
Accepted flit rate average= 0.009125
	minimum = 0.002 (at node 3)
	maximum = 0.016 (at node 15)
Injected packet length average = 1
Accepted packet length average = 1
Total in-flight flits = 5 (0 measured)
latency change    = 1
throughput change = 1
Class 0:
Packet latency average = 22.0132
	minimum = 7
	maximum = 67
Network latency average = 22.0132
	minimum = 7
	maximum = 67
Slowest packet = 4555
Flit latency average = 22.0132
	minimum = 7
	maximum = 67
Slowest flit = 4555
Fragmentation average = 0
	minimum = 0
	maximum = 0
Injected packet rate average = 0.0095625
	minimum = 0.003 (at node 5)
	maximum = 0.016 (at node 9)
Accepted packet rate average = 0.0094375
	minimum = 0.004 (at node 10)
	maximum = 0.012 (at node 1)
Injected flit rate average = 0.0095625
	minimum = 0.003 (at node 5)
	maximum = 0.016 (at node 9)
Accepted flit rate average= 0.0094375
	minimum = 0.004 (at node 10)
	maximum = 0.012 (at node 1)
Injected packet length average = 1
Accepted packet length average = 1
Total in-flight flits = 2 (0 measured)
latency change    = 0.059097
throughput change = 0.0331126
Class 0:
Packet latency average = 20.7176
	minimum = 7
	maximum = 52
Network latency average = 20.7176
	minimum = 7
	maximum = 52
Slowest packet = 4662
Flit latency average = 20.7176
	minimum = 7
	maximum = 52
Slowest flit = 4662
Fragmentation average = 0
	minimum = 0
	maximum = 0
Injected packet rate average = 0.011125
	minimum = 0.002 (at node 3)
	maximum = 0.02 (at node 6)
Accepted packet rate average = 0.010625
	minimum = 0.002 (at node 15)
	maximum = 0.024 (at node 6)
Injected flit rate average = 0.011125
	minimum = 0.002 (at node 3)
	maximum = 0.02 (at node 6)
Accepted flit rate average= 0.010625
	minimum = 0.002 (at node 15)
	maximum = 0.024 (at node 6)
Injected packet length average = 1
Accepted packet length average = 1
Total in-flight flits = 6 (0 measured)
latency change    = 0.062536
throughput change = 0.111765
Warmed up ...Time used is 1500 cycles
Class 0:
Packet latency average = 21.2716
	minimum = 7
	maximum = 52
Network latency average = 21.2716
	minimum = 7
	maximum = 52
Slowest packet = 4725
Flit latency average = 21.3218
	minimum = 7
	maximum = 52
Slowest flit = 4725
Fragmentation average = 0
	minimum = 0
	maximum = 0
Injected packet rate average = 0.010625
	minimum = 0.004 (at node 6)
	maximum = 0.016 (at node 3)
Accepted packet rate average = 0.010875
	minimum = 0.002 (at node 7)
	maximum = 0.018 (at node 2)
Injected flit rate average = 0.010625
	minimum = 0.004 (at node 6)
	maximum = 0.016 (at node 3)
Accepted flit rate average= 0.010875
	minimum = 0.002 (at node 7)
	maximum = 0.018 (at node 2)
Injected packet length average = 1
Accepted packet length average = 1
Total in-flight flits = 4 (4 measured)
latency change    = 0.0260421
throughput change = 0.0229885
Class 0:
Packet latency average = 21.9531
	minimum = 7
	maximum = 57
Network latency average = 21.9531
	minimum = 7
	maximum = 57
Slowest packet = 4832
Flit latency average = 21.9545
	minimum = 7
	maximum = 57
Slowest flit = 4832
Fragmentation average = 0
	minimum = 0
	maximum = 0
Injected packet rate average = 0.0124375
	minimum = 0.009 (at node 1)
	maximum = 0.018 (at node 0)
Accepted packet rate average = 0.012375
	minimum = 0.004 (at node 13)
	maximum = 0.02 (at node 2)
Injected flit rate average = 0.0124375
	minimum = 0.009 (at node 1)
	maximum = 0.018 (at node 0)
Accepted flit rate average= 0.012375
	minimum = 0.004 (at node 13)
	maximum = 0.02 (at node 2)
Injected packet length average = 1
Accepted packet length average = 1
Total in-flight flits = 7 (7 measured)
latency change    = 0.0310443
throughput change = 0.121212
Class 0:
Packet latency average = 21.7607
	minimum = 7
	maximum = 57
Network latency average = 21.7607
	minimum = 7
	maximum = 57
Slowest packet = 4832
Flit latency average = 21.7657
	minimum = 7
	maximum = 57
Slowest flit = 4832
Fragmentation average = 0
	minimum = 0
	maximum = 0
Injected packet rate average = 0.0117917
	minimum = 0.00866667 (at node 1)
	maximum = 0.0153333 (at node 8)
Accepted packet rate average = 0.0119167
	minimum = 0.006 (at node 5)
	maximum = 0.0173333 (at node 2)
Injected flit rate average = 0.0117917
	minimum = 0.00866667 (at node 1)
	maximum = 0.0153333 (at node 8)
Accepted flit rate average= 0.0119167
	minimum = 0.006 (at node 5)
	maximum = 0.0173333 (at node 2)
Injected packet length average = 1
Accepted packet length average = 1
Total in-flight flits = 3 (3 measured)
latency change    = 0.00884211
throughput change = 0.0384615
Class 0:
Packet latency average = 21.8301
	minimum = 7
	maximum = 59
Network latency average = 21.8301
	minimum = 7
	maximum = 59
Slowest packet = 5070
Flit latency average = 21.8329
	minimum = 7
	maximum = 59
Slowest flit = 5070
Fragmentation average = 0
	minimum = 0
	maximum = 0
Injected packet rate average = 0.011625
	minimum = 0.0085 (at node 5)
	maximum = 0.0145 (at node 11)
Accepted packet rate average = 0.0115937
	minimum = 0.0055 (at node 5)
	maximum = 0.0155 (at node 3)
Injected flit rate average = 0.011625
	minimum = 0.0085 (at node 5)
	maximum = 0.0145 (at node 11)
Accepted flit rate average= 0.0115937
	minimum = 0.0055 (at node 5)
	maximum = 0.0155 (at node 3)
Injected packet length average = 1
Accepted packet length average = 1
Total in-flight flits = 7 (7 measured)
latency change    = 0.00318013
throughput change = 0.0278527
Class 0:
Packet latency average = 21.7741
	minimum = 7
	maximum = 59
Network latency average = 21.7741
	minimum = 7
	maximum = 59
Slowest packet = 5070
Flit latency average = 21.7771
	minimum = 7
	maximum = 59
Slowest flit = 5070
Fragmentation average = 0
	minimum = 0
	maximum = 0
Injected packet rate average = 0.0115
	minimum = 0.0088 (at node 5)
	maximum = 0.0136 (at node 3)
Accepted packet rate average = 0.01155
	minimum = 0.0064 (at node 5)
	maximum = 0.0148 (at node 2)
Injected flit rate average = 0.0115
	minimum = 0.0088 (at node 5)
	maximum = 0.0136 (at node 3)
Accepted flit rate average= 0.01155
	minimum = 0.0064 (at node 5)
	maximum = 0.0148 (at node 2)
Injected packet length average = 1
Accepted packet length average = 1
Total in-flight flits = 4 (4 measured)
latency change    = 0.00257251
throughput change = 0.00378788
Draining all recorded packets ...
Draining remaining packets ...
Time taken is 4041 cycles
Class 0:
Packet latency average = 22.662
	minimum = 7
	maximum = 57
Network latency average = 22.662
	minimum = 7
	maximum = 57
Slowest packet = 5211
Flit latency average = 22.662
	minimum = 7
	maximum = 57
Slowest flit = 5211
Fragmentation average = 0
	minimum = 0
	maximum = 0
Injected packet rate average = 0.009375
	minimum = 0.002 (at node 4)
	maximum = 0.02 (at node 13)
Accepted packet rate average = 0.008875
	minimum = 0 (at node 8)
	maximum = 0.02 (at node 6)
Injected flit rate average = 0.009375
	minimum = 0.002 (at node 4)
	maximum = 0.02 (at node 13)
Accepted flit rate average= 0.008875
	minimum = 0 (at node 8)
	maximum = 0.02 (at node 6)
Injected packet length average = 1
Accepted packet length average = 1
Total in-flight flits = 4 (0 measured)
latency change    = 1
throughput change = 1
Class 0:
Packet latency average = 22.5933
	minimum = 7
	maximum = 57
Network latency average = 22.5933
	minimum = 7
	maximum = 57
Slowest packet = 5211
Flit latency average = 22.5933
	minimum = 7
	maximum = 57
Slowest flit = 5211
Fragmentation average = 0
	minimum = 0
	maximum = 0
Injected packet rate average = 0.00975
	minimum = 0.006 (at node 4)
	maximum = 0.015 (at node 6)
Accepted packet rate average = 0.009375
	minimum = 0.006 (at node 8)
	maximum = 0.013 (at node 6)
Injected flit rate average = 0.00975
	minimum = 0.006 (at node 4)
	maximum = 0.015 (at node 6)
Accepted flit rate average= 0.009375
	minimum = 0.006 (at node 8)
	maximum = 0.013 (at node 6)
Injected packet length average = 1
Accepted packet length average = 1
Total in-flight flits = 6 (0 measured)
latency change    = 0.003038
throughput change = 0.0533333
Class 0:
Packet latency average = 21.8571
	minimum = 7
	maximum = 53
Network latency average = 21.8571
	minimum = 7
	maximum = 53
Slowest packet = 5372
Flit latency average = 21.8571
	minimum = 7
	maximum = 53
Slowest flit = 5372
Fragmentation average = 0
	minimum = 0
	maximum = 0
Injected packet rate average = 0.011625
	minimum = 0.002 (at node 0)
	maximum = 0.022 (at node 1)
Accepted packet rate average = 0.011375
	minimum = 0.004 (at node 11)
	maximum = 0.018 (at node 0)
Injected flit rate average = 0.011625
	minimum = 0.002 (at node 0)
	maximum = 0.022 (at node 1)
Accepted flit rate average= 0.011375
	minimum = 0.004 (at node 11)
	maximum = 0.018 (at node 0)
Injected packet length average = 1
Accepted packet length average = 1
Total in-flight flits = 8 (0 measured)
latency change    = 0.0336819
throughput change = 0.175824
Warmed up ...Time used is 1500 cycles
Class 0:
Packet latency average = 23.9211
	minimum = 7
	maximum = 59
Network latency average = 23.9211
	minimum = 7
	maximum = 59
Slowest packet = 5458
Flit latency average = 24.2738
	minimum = 7
	maximum = 59
Slowest flit = 5458
Fragmentation average = 0
	minimum = 0
	maximum = 0
Injected packet rate average = 0.009625
	minimum = 0.002 (at node 8)
	maximum = 0.02 (at node 11)
Accepted packet rate average = 0.0105
	minimum = 0.004 (at node 11)
	maximum = 0.02 (at node 12)
Injected flit rate average = 0.009625
	minimum = 0.002 (at node 8)
	maximum = 0.02 (at node 11)
Accepted flit rate average= 0.0105
	minimum = 0.004 (at node 11)
	maximum = 0.02 (at node 12)
Injected packet length average = 1
Accepted packet length average = 1
Total in-flight flits = 1 (1 measured)
latency change    = 0.0862801
throughput change = 0.0833333
Class 0:
Packet latency average = 23.0245
	minimum = 7
	maximum = 59
Network latency average = 23.0245
	minimum = 7
	maximum = 59
Slowest packet = 5458
Flit latency average = 23.2398
	minimum = 7
	maximum = 59
Slowest flit = 5458
Fragmentation average = 0
	minimum = 0
	maximum = 0
Injected packet rate average = 0.0104375
	minimum = 0.004 (at node 8)
	maximum = 0.016 (at node 12)
Accepted packet rate average = 0.0106875
	minimum = 0.005 (at node 10)
	maximum = 0.018 (at node 12)
Injected flit rate average = 0.0104375
	minimum = 0.004 (at node 8)
	maximum = 0.016 (at node 12)
Accepted flit rate average= 0.0106875
	minimum = 0.005 (at node 10)
	maximum = 0.018 (at node 12)
Injected packet length average = 1
Accepted packet length average = 1
Total in-flight flits = 4 (4 measured)
latency change    = 0.0389373
throughput change = 0.0175439
Class 0:
Packet latency average = 21.9634
	minimum = 7
	maximum = 59
Network latency average = 21.9634
	minimum = 7
	maximum = 59
Slowest packet = 5458
Flit latency average = 22.1417
	minimum = 7
	maximum = 59
Slowest flit = 5458
Fragmentation average = 0
	minimum = 0
	maximum = 0
Injected packet rate average = 0.010375
	minimum = 0.00466667 (at node 10)
	maximum = 0.014 (at node 7)
Accepted packet rate average = 0.0105833
	minimum = 0.00733333 (at node 6)
	maximum = 0.014 (at node 12)
Injected flit rate average = 0.010375
	minimum = 0.00466667 (at node 10)
	maximum = 0.014 (at node 7)
Accepted flit rate average= 0.0105833
	minimum = 0.00733333 (at node 6)
	maximum = 0.014 (at node 12)
Injected packet length average = 1
Accepted packet length average = 1
Total in-flight flits = 3 (3 measured)
latency change    = 0.0483133
throughput change = 0.00984252
Class 0:
Packet latency average = 21.6019
	minimum = 7
	maximum = 59
Network latency average = 21.6019
	minimum = 7
	maximum = 59
Slowest packet = 5458
Flit latency average = 21.7516
	minimum = 7
	maximum = 59
Slowest flit = 5458
Fragmentation average = 0
	minimum = 0
	maximum = 0
Injected packet rate average = 0.00984375
	minimum = 0.0065 (at node 15)
	maximum = 0.0135 (at node 7)
Accepted packet rate average = 0.0100625
	minimum = 0.008 (at node 5)
	maximum = 0.0135 (at node 12)
Injected flit rate average = 0.00984375
	minimum = 0.0065 (at node 15)
	maximum = 0.0135 (at node 7)
Accepted flit rate average= 0.0100625
	minimum = 0.008 (at node 5)
	maximum = 0.0135 (at node 12)
Injected packet length average = 1
Accepted packet length average = 1
Total in-flight flits = 1 (1 measured)
latency change    = 0.0167348
throughput change = 0.0517598
Class 0:
Packet latency average = 21.4604
	minimum = 7
	maximum = 59
Network latency average = 21.4604
	minimum = 7
	maximum = 59
Slowest packet = 5458
Flit latency average = 21.5801
	minimum = 7
	maximum = 59
Slowest flit = 5458
Fragmentation average = 0
	minimum = 0
	maximum = 0
Injected packet rate average = 0.01015
	minimum = 0.008 (at node 15)
	maximum = 0.0132 (at node 7)
Accepted packet rate average = 0.0103
	minimum = 0.008 (at node 13)
	maximum = 0.0144 (at node 4)
Injected flit rate average = 0.01015
	minimum = 0.008 (at node 15)
	maximum = 0.0132 (at node 7)
Accepted flit rate average= 0.0103
	minimum = 0.008 (at node 13)
	maximum = 0.0144 (at node 4)
Injected packet length average = 1
Accepted packet length average = 1
Total in-flight flits = 2 (2 measured)
latency change    = 0.00659423
throughput change = 0.0230583
Class 0:
Packet latency average = 21.4887
	minimum = 7
	maximum = 59
Network latency average = 21.4887
	minimum = 7
	maximum = 59
Slowest packet = 5458
Flit latency average = 21.5882
	minimum = 7
	maximum = 59
Slowest flit = 5458
Fragmentation average = 0
	minimum = 0
	maximum = 0
Injected packet rate average = 0.0102292
	minimum = 0.00766667 (at node 6)
	maximum = 0.013 (at node 8)
Accepted packet rate average = 0.0102708
	minimum = 0.008 (at node 13)
	maximum = 0.0133333 (at node 4)
Injected flit rate average = 0.0102292
	minimum = 0.00766667 (at node 6)
	maximum = 0.013 (at node 8)
Accepted flit rate average= 0.0102708
	minimum = 0.008 (at node 13)
	maximum = 0.0133333 (at node 4)
Injected packet length average = 1
Accepted packet length average = 1
Total in-flight flits = 6 (6 measured)
latency change    = 0.00131529
throughput change = 0.00283976
Class 0:
Packet latency average = 21.6942
	minimum = 7
	maximum = 59
Network latency average = 21.6942
	minimum = 7
	maximum = 59
Slowest packet = 5458
Flit latency average = 21.7784
	minimum = 7
	maximum = 59
Slowest flit = 5458
Fragmentation average = 0
	minimum = 0
	maximum = 0
Injected packet rate average = 0.00996429
	minimum = 0.00771429 (at node 6)
	maximum = 0.0131429 (at node 14)
Accepted packet rate average = 0.0100714
	minimum = 0.00771429 (at node 14)
	maximum = 0.0128571 (at node 12)
Injected flit rate average = 0.00996429
	minimum = 0.00771429 (at node 6)
	maximum = 0.0131429 (at node 14)
Accepted flit rate average= 0.0100714
	minimum = 0.00771429 (at node 14)
	maximum = 0.0128571 (at node 12)
Injected packet length average = 1
Accepted packet length average = 1
Total in-flight flits = 2 (2 measured)
latency change    = 0.00947647
throughput change = 0.0197991
Draining all recorded packets ...
Draining remaining packets ...
Time taken is 5040 cycles
Class 0:
Packet latency average = 20.2031
	minimum = 7
	maximum = 52
Network latency average = 20.2031
	minimum = 7
	maximum = 52
Slowest packet = 6026
Flit latency average = 20.2031
	minimum = 7
	maximum = 52
Slowest flit = 6026
Fragmentation average = 0
	minimum = 0
	maximum = 0
Injected packet rate average = 0.00825
	minimum = 0.002 (at node 8)
	maximum = 0.02 (at node 1)
Accepted packet rate average = 0.008
	minimum = 0.002 (at node 9)
	maximum = 0.016 (at node 5)
Injected flit rate average = 0.00825
	minimum = 0.002 (at node 8)
	maximum = 0.02 (at node 1)
Accepted flit rate average= 0.008
	minimum = 0.002 (at node 9)
	maximum = 0.016 (at node 5)
Injected packet length average = 1
Accepted packet length average = 1
Total in-flight flits = 2 (0 measured)
latency change    = 1
throughput change = 1
Class 0:
Packet latency average = 21.305
	minimum = 7
	maximum = 61
Network latency average = 21.305
	minimum = 7
	maximum = 61
Slowest packet = 6068
Flit latency average = 21.305
	minimum = 7
	maximum = 61
Slowest flit = 6068
Fragmentation average = 0
	minimum = 0
	maximum = 0
Injected packet rate average = 0.00925
	minimum = 0.006 (at node 4)
	maximum = 0.017 (at node 1)
Accepted packet rate average = 0.0088125
	minimum = 0.003 (at node 4)
	maximum = 0.013 (at node 5)
Injected flit rate average = 0.00925
	minimum = 0.006 (at node 4)
	maximum = 0.017 (at node 1)
Accepted flit rate average= 0.0088125
	minimum = 0.003 (at node 4)
	maximum = 0.013 (at node 5)
Injected packet length average = 1
Accepted packet length average = 1
Total in-flight flits = 7 (0 measured)
latency change    = 0.0517175
throughput change = 0.0921986
Class 0:
Packet latency average = 21.1889
	minimum = 7
	maximum = 47
Network latency average = 21.1889
	minimum = 7
	maximum = 47
Slowest packet = 6207
Flit latency average = 21.1889
	minimum = 7
	maximum = 47
Slowest flit = 6207
Fragmentation average = 0
	minimum = 0
	maximum = 0
Injected packet rate average = 0.01075
	minimum = 0.006 (at node 2)
	maximum = 0.018 (at node 7)
Accepted packet rate average = 0.01125
	minimum = 0.004 (at node 1)
	maximum = 0.022 (at node 4)
Injected flit rate average = 0.01075
	minimum = 0.006 (at node 2)
	maximum = 0.018 (at node 7)
Accepted flit rate average= 0.01125
	minimum = 0.004 (at node 1)
	maximum = 0.022 (at node 4)
Injected packet length average = 1
Accepted packet length average = 1
Total in-flight flits = 3 (0 measured)
latency change    = 0.00547814
throughput change = 0.216667
Warmed up ...Time used is 1500 cycles
Class 0:
Packet latency average = 21.027
	minimum = 7
	maximum = 48
Network latency average = 21.027
	minimum = 7
	maximum = 48
Slowest packet = 6268
Flit latency average = 21.4675
	minimum = 7
	maximum = 48
Slowest flit = 6268
Fragmentation average = 0
	minimum = 0
	maximum = 0
Injected packet rate average = 0.01
	minimum = 0.006 (at node 2)
	maximum = 0.022 (at node 11)
Accepted packet rate average = 0.009625
	minimum = 0.002 (at node 6)
	maximum = 0.018 (at node 1)
Injected flit rate average = 0.01
	minimum = 0.006 (at node 2)
	maximum = 0.022 (at node 11)
Accepted flit rate average= 0.009625
	minimum = 0.002 (at node 6)
	maximum = 0.018 (at node 1)
Injected packet length average = 1
Accepted packet length average = 1
Total in-flight flits = 6 (6 measured)
latency change    = 0.0076978
throughput change = 0.168831
Class 0:
Packet latency average = 21.9281
	minimum = 7
	maximum = 52
Network latency average = 21.9281
	minimum = 7
	maximum = 52
Slowest packet = 6301
Flit latency average = 22.1282
	minimum = 7
	maximum = 52
Slowest flit = 6301
Fragmentation average = 0
	minimum = 0
	maximum = 0
Injected packet rate average = 0.00975
	minimum = 0.006 (at node 2)
	maximum = 0.014 (at node 11)
Accepted packet rate average = 0.00975
	minimum = 0.003 (at node 7)
	maximum = 0.017 (at node 4)
Injected flit rate average = 0.00975
	minimum = 0.006 (at node 2)
	maximum = 0.014 (at node 11)
Accepted flit rate average= 0.00975
	minimum = 0.003 (at node 7)
	maximum = 0.017 (at node 4)
Injected packet length average = 1
Accepted packet length average = 1
Total in-flight flits = 3 (3 measured)
latency change    = 0.0410924
throughput change = 0.0128205
Class 0:
Packet latency average = 21.7981
	minimum = 7
	maximum = 52
Network latency average = 21.7981
	minimum = 7
	maximum = 52
Slowest packet = 6301
Flit latency average = 21.9444
	minimum = 7
	maximum = 52
Slowest flit = 6301
Fragmentation average = 0
	minimum = 0
	maximum = 0
Injected packet rate average = 0.00891667
	minimum = 0.004 (at node 13)
	maximum = 0.014 (at node 11)
Accepted packet rate average = 0.009
	minimum = 0.004 (at node 7)
	maximum = 0.0146667 (at node 4)
Injected flit rate average = 0.00891667
	minimum = 0.004 (at node 13)
	maximum = 0.014 (at node 11)
Accepted flit rate average= 0.009
	minimum = 0.004 (at node 7)
	maximum = 0.0146667 (at node 4)
Injected packet length average = 1
Accepted packet length average = 1
Total in-flight flits = 1 (1 measured)
latency change    = 0.00596301
throughput change = 0.0833333
Class 0:
Packet latency average = 21.2927
	minimum = 7
	maximum = 52
Network latency average = 21.2927
	minimum = 7
	maximum = 52
Slowest packet = 6301
Flit latency average = 21.4069
	minimum = 7
	maximum = 52
Slowest flit = 6301
Fragmentation average = 0
	minimum = 0
	maximum = 0
Injected packet rate average = 0.00909375
	minimum = 0.0065 (at node 7)
	maximum = 0.014 (at node 0)
Accepted packet rate average = 0.0090625
	minimum = 0.005 (at node 7)
	maximum = 0.0145 (at node 4)
Injected flit rate average = 0.00909375
	minimum = 0.0065 (at node 7)
	maximum = 0.014 (at node 0)
Accepted flit rate average= 0.0090625
	minimum = 0.005 (at node 7)
	maximum = 0.0145 (at node 4)
Injected packet length average = 1
Accepted packet length average = 1
Total in-flight flits = 4 (4 measured)
latency change    = 0.0237377
throughput change = 0.00689655
Class 0:
Packet latency average = 21.059
	minimum = 7
	maximum = 52
Network latency average = 21.059
	minimum = 7
	maximum = 52
Slowest packet = 6301
Flit latency average = 21.1489
	minimum = 7
	maximum = 52
Slowest flit = 6301
Fragmentation average = 0
	minimum = 0
	maximum = 0
Injected packet rate average = 0.0094
	minimum = 0.0064 (at node 13)
	maximum = 0.012 (at node 1)
Accepted packet rate average = 0.0094
	minimum = 0.0056 (at node 12)
	maximum = 0.0144 (at node 4)
Injected flit rate average = 0.0094
	minimum = 0.0064 (at node 13)
	maximum = 0.012 (at node 1)
Accepted flit rate average= 0.0094
	minimum = 0.0056 (at node 12)
	maximum = 0.0144 (at node 4)
Injected packet length average = 1
Accepted packet length average = 1
Total in-flight flits = 3 (3 measured)
latency change    = 0.0110975
throughput change = 0.0359043
Class 0:
Packet latency average = 21.2709
	minimum = 7
	maximum = 52
Network latency average = 21.2709
	minimum = 7
	maximum = 52
Slowest packet = 6301
Flit latency average = 21.3435
	minimum = 7
	maximum = 52
Slowest flit = 6301
Fragmentation average = 0
	minimum = 0
	maximum = 0
Injected packet rate average = 0.00954167
	minimum = 0.00633333 (at node 7)
	maximum = 0.0126667 (at node 0)
Accepted packet rate average = 0.00952083
	minimum = 0.00566667 (at node 7)
	maximum = 0.0136667 (at node 4)
Injected flit rate average = 0.00954167
	minimum = 0.00633333 (at node 7)
	maximum = 0.0126667 (at node 0)
Accepted flit rate average= 0.00952083
	minimum = 0.00566667 (at node 7)
	maximum = 0.0136667 (at node 4)
Injected packet length average = 1
Accepted packet length average = 1
Total in-flight flits = 4 (4 measured)
latency change    = 0.00996402
throughput change = 0.0126915
Draining all recorded packets ...
Draining remaining packets ...
Time taken is 4518 cycles
Class 0:
Packet latency average = 20.7802
	minimum = 7
	maximum = 57
Network latency average = 20.7802
	minimum = 7
	maximum = 57
Slowest packet = 6691
Flit latency average = 20.7802
	minimum = 7
	maximum = 57
Slowest flit = 6691
Fragmentation average = 0
	minimum = 0
	maximum = 0
Injected packet rate average = 0.011375
	minimum = 0.006 (at node 13)
	maximum = 0.02 (at node 4)
Accepted packet rate average = 0.011375
	minimum = 0.004 (at node 2)
	maximum = 0.02 (at node 5)
Injected flit rate average = 0.011375
	minimum = 0.006 (at node 13)
	maximum = 0.02 (at node 4)
Accepted flit rate average= 0.011375
	minimum = 0.004 (at node 2)
	maximum = 0.02 (at node 5)
Injected packet length average = 1
Accepted packet length average = 1
Total in-flight flits = 0 (0 measured)
latency change    = 1
throughput change = 1
Class 0:
Packet latency average = 20.4606
	minimum = 7
	maximum = 57
Network latency average = 20.4606
	minimum = 7
	maximum = 57
Slowest packet = 6691
Flit latency average = 20.4606
	minimum = 7
	maximum = 57
Slowest flit = 6691
Fragmentation average = 0
	minimum = 0
	maximum = 0
Injected packet rate average = 0.0105
	minimum = 0.007 (at node 13)
	maximum = 0.017 (at node 8)
Accepted packet rate average = 0.0103125
	minimum = 0.005 (at node 2)
	maximum = 0.018 (at node 10)
Injected flit rate average = 0.0105
	minimum = 0.007 (at node 13)
	maximum = 0.017 (at node 8)
Accepted flit rate average= 0.0103125
	minimum = 0.005 (at node 2)
	maximum = 0.018 (at node 10)
Injected packet length average = 1
Accepted packet length average = 1
Total in-flight flits = 3 (0 measured)
latency change    = 0.0156209
throughput change = 0.10303
Class 0:
Packet latency average = 20.5732
	minimum = 7
	maximum = 52
Network latency average = 20.5732
	minimum = 7
	maximum = 52
Slowest packet = 6896
Flit latency average = 20.5732
	minimum = 7
	maximum = 52
Slowest flit = 6896
Fragmentation average = 0
	minimum = 0
	maximum = 0
Injected packet rate average = 0.010125
	minimum = 0.004 (at node 12)
	maximum = 0.018 (at node 8)
Accepted packet rate average = 0.01025
	minimum = 0.004 (at node 2)
	maximum = 0.018 (at node 8)
Injected flit rate average = 0.010125
	minimum = 0.004 (at node 12)
	maximum = 0.018 (at node 8)
Accepted flit rate average= 0.01025
	minimum = 0.004 (at node 2)
	maximum = 0.018 (at node 8)
Injected packet length average = 1
Accepted packet length average = 1
Total in-flight flits = 2 (0 measured)
latency change    = 0.00547143
throughput change = 0.00609756
Warmed up ...Time used is 1500 cycles
Class 0:
Packet latency average = 19.7849
	minimum = 7
	maximum = 47
Network latency average = 19.7849
	minimum = 7
	maximum = 47
Slowest packet = 6970
Flit latency average = 19.9895
	minimum = 7
	maximum = 47
Slowest flit = 6970
Fragmentation average = 0
	minimum = 0
	maximum = 0
Injected packet rate average = 0.012125
	minimum = 0.006 (at node 6)
	maximum = 0.018 (at node 11)
Accepted packet rate average = 0.011875
	minimum = 0.006 (at node 1)
	maximum = 0.02 (at node 11)
Injected flit rate average = 0.012125
	minimum = 0.006 (at node 6)
	maximum = 0.018 (at node 11)
Accepted flit rate average= 0.011875
	minimum = 0.006 (at node 1)
	maximum = 0.02 (at node 11)
Injected packet length average = 1
Accepted packet length average = 1
Total in-flight flits = 4 (4 measured)
latency change    = 0.0398396
throughput change = 0.136842
Class 0:
Packet latency average = 21.3274
	minimum = 7
	maximum = 57
Network latency average = 21.3274
	minimum = 7
	maximum = 57
Slowest packet = 7056
Flit latency average = 21.4235
	minimum = 7
	maximum = 57
Slowest flit = 7056
Fragmentation average = 0
	minimum = 0
	maximum = 0
Injected packet rate average = 0.010875
	minimum = 0.007 (at node 1)
	maximum = 0.015 (at node 3)
Accepted packet rate average = 0.010625
	minimum = 0.005 (at node 7)
	maximum = 0.017 (at node 10)
Injected flit rate average = 0.010875
	minimum = 0.007 (at node 1)
	maximum = 0.015 (at node 3)
Accepted flit rate average= 0.010625
	minimum = 0.005 (at node 7)
	maximum = 0.017 (at node 10)
Injected packet length average = 1
Accepted packet length average = 1
Total in-flight flits = 6 (6 measured)
latency change    = 0.0723218
throughput change = 0.117647
Class 0:
Packet latency average = 21.8368
	minimum = 7
	maximum = 57
Network latency average = 21.8368
	minimum = 7
	maximum = 57
Slowest packet = 7056
Flit latency average = 21.9004
	minimum = 7
	maximum = 57
Slowest flit = 7056
Fragmentation average = 0
	minimum = 0
	maximum = 0
Injected packet rate average = 0.01
	minimum = 0.00733333 (at node 2)
	maximum = 0.0133333 (at node 15)
Accepted packet rate average = 0.0100417
	minimum = 0.006 (at node 1)
	maximum = 0.0166667 (at node 14)
Injected flit rate average = 0.01
	minimum = 0.00733333 (at node 2)
	maximum = 0.0133333 (at node 15)
Accepted flit rate average= 0.0100417
	minimum = 0.006 (at node 1)
	maximum = 0.0166667 (at node 14)
Injected packet length average = 1
Accepted packet length average = 1
Total in-flight flits = 1 (1 measured)
latency change    = 0.0233294
throughput change = 0.0580913
Class 0:
Packet latency average = 21.8809
	minimum = 7
	maximum = 57
Network latency average = 21.8809
	minimum = 7
	maximum = 57
Slowest packet = 7056
Flit latency average = 21.9283
	minimum = 7
	maximum = 57
Slowest flit = 7056
Fragmentation average = 0
	minimum = 0
	maximum = 0
Injected packet rate average = 0.0100313
	minimum = 0.007 (at node 2)
	maximum = 0.016 (at node 4)
Accepted packet rate average = 0.0100313
	minimum = 0.005 (at node 1)
	maximum = 0.015 (at node 14)
Injected flit rate average = 0.0100313
	minimum = 0.007 (at node 2)
	maximum = 0.016 (at node 4)
Accepted flit rate average= 0.0100313
	minimum = 0.005 (at node 1)
	maximum = 0.015 (at node 14)
Injected packet length average = 1
Accepted packet length average = 1
Total in-flight flits = 2 (2 measured)
latency change    = 0.00201352
throughput change = 0.00103842
Class 0:
Packet latency average = 22.1491
	minimum = 7
	maximum = 57
Network latency average = 22.1491
	minimum = 7
	maximum = 57
Slowest packet = 7056
Flit latency average = 22.1867
	minimum = 7
	maximum = 57
Slowest flit = 7056
Fragmentation average = 0
	minimum = 0
	maximum = 0
Injected packet rate average = 0.009875
	minimum = 0.0072 (at node 2)
	maximum = 0.014 (at node 4)
Accepted packet rate average = 0.009775
	minimum = 0.0044 (at node 1)
	maximum = 0.0136 (at node 14)
Injected flit rate average = 0.009875
	minimum = 0.0072 (at node 2)
	maximum = 0.014 (at node 4)
Accepted flit rate average= 0.009775
	minimum = 0.0044 (at node 1)
	maximum = 0.0136 (at node 14)
Injected packet length average = 1
Accepted packet length average = 1
Total in-flight flits = 6 (6 measured)
latency change    = 0.0121099
throughput change = 0.0262148
Class 0:
Packet latency average = 22.4495
	minimum = 7
	maximum = 61
Network latency average = 22.4495
	minimum = 7
	maximum = 61
Slowest packet = 7385
Flit latency average = 22.4797
	minimum = 7
	maximum = 61
Slowest flit = 7385
Fragmentation average = 0
	minimum = 0
	maximum = 0
Injected packet rate average = 0.00972917
	minimum = 0.00733333 (at node 2)
	maximum = 0.0136667 (at node 4)
Accepted packet rate average = 0.00972917
	minimum = 0.00566667 (at node 1)
	maximum = 0.0133333 (at node 14)
Injected flit rate average = 0.00972917
	minimum = 0.00733333 (at node 2)
	maximum = 0.0136667 (at node 4)
Accepted flit rate average= 0.00972917
	minimum = 0.00566667 (at node 1)
	maximum = 0.0133333 (at node 14)
Injected packet length average = 1
Accepted packet length average = 1
Total in-flight flits = 2 (2 measured)
latency change    = 0.0133795
throughput change = 0.00471092
Draining all recorded packets ...
Draining remaining packets ...
Time taken is 4521 cycles
Class 0:
Packet latency average = 21.6914
	minimum = 7
	maximum = 52
Network latency average = 21.6914
	minimum = 7
	maximum = 52
Slowest packet = 7408
Flit latency average = 21.6914
	minimum = 7
	maximum = 52
Slowest flit = 7408
Fragmentation average = 0
	minimum = 0
	maximum = 0
Injected packet rate average = 0.0105
	minimum = 0 (at node 1)
[...]
Network latency average = 19.6739
	minimum = 7
	maximum = 47
Slowest packet = 32068
Flit latency average = 20.2424
	minimum = 7
	maximum = 57
Slowest flit = 32030
Fragmentation average = 0
	minimum = 0
	maximum = 0
Injected packet rate average = 0.011875
	minimum = 0.008 (at node 3)
	maximum = 0.016 (at node 0)
Accepted packet rate average = 0.012375
	minimum = 0.006 (at node 4)
	maximum = 0.02 (at node 5)
Injected flit rate average = 0.011875
	minimum = 0.008 (at node 3)
	maximum = 0.016 (at node 0)
Accepted flit rate average= 0.012375
	minimum = 0.006 (at node 4)
	maximum = 0.02 (at node 5)
Injected packet length average = 1
Accepted packet length average = 1
Total in-flight flits = 3 (3 measured)
latency change    = 0.187828
throughput change = 0.343434
Class 0:
Packet latency average = 21.1337
	minimum = 7
	maximum = 53
Network latency average = 21.1337
	minimum = 7
	maximum = 53
Slowest packet = 32165
Flit latency average = 21.3911
	minimum = 7
	maximum = 57
Slowest flit = 32030
Fragmentation average = 0
	minimum = 0
	maximum = 0
Injected packet rate average = 0.0110625
	minimum = 0.006 (at node 5)
	maximum = 0.014 (at node 6)
Accepted packet rate average = 0.0111875
	minimum = 0.004 (at node 11)
	maximum = 0.018 (at node 15)
Injected flit rate average = 0.0110625
	minimum = 0.006 (at node 5)
	maximum = 0.014 (at node 6)
Accepted flit rate average= 0.0111875
	minimum = 0.004 (at node 11)
	maximum = 0.018 (at node 15)
Injected packet length average = 1
Accepted packet length average = 1
Total in-flight flits = 5 (5 measured)
latency change    = 0.0690748
throughput change = 0.106145
Class 0:
Packet latency average = 21.4713
	minimum = 7
	maximum = 53
Network latency average = 21.4713
	minimum = 7
	maximum = 53
Slowest packet = 32165
Flit latency average = 21.6454
	minimum = 7
	maximum = 57
Slowest flit = 32030
Fragmentation average = 0
	minimum = 0
	maximum = 0
Injected packet rate average = 0.010375
	minimum = 0.006 (at node 5)
	maximum = 0.0146667 (at node 15)
Accepted packet rate average = 0.0104583
	minimum = 0.00533333 (at node 9)
	maximum = 0.0153333 (at node 5)
Injected flit rate average = 0.010375
	minimum = 0.006 (at node 5)
	maximum = 0.0146667 (at node 15)
Accepted flit rate average= 0.0104583
	minimum = 0.00533333 (at node 9)
	maximum = 0.0153333 (at node 5)
Injected packet length average = 1
Accepted packet length average = 1
Total in-flight flits = 5 (5 measured)
latency change    = 0.0157229
throughput change = 0.0697211
Class 0:
Packet latency average = 21.6254
	minimum = 7
	maximum = 53
Network latency average = 21.6254
	minimum = 7
	maximum = 53
Slowest packet = 32165
Flit latency average = 21.7545
	minimum = 7
	maximum = 57
Slowest flit = 32030
Fragmentation average = 0
	minimum = 0
	maximum = 0
Injected packet rate average = 0.0102188
	minimum = 0.007 (at node 5)
	maximum = 0.0135 (at node 15)
Accepted packet rate average = 0.0103125
	minimum = 0.0055 (at node 9)
	maximum = 0.014 (at node 14)
Injected flit rate average = 0.0102188
	minimum = 0.007 (at node 5)
	maximum = 0.0135 (at node 15)
Accepted flit rate average= 0.0103125
	minimum = 0.0055 (at node 9)
	maximum = 0.014 (at node 14)
Injected packet length average = 1
Accepted packet length average = 1
Total in-flight flits = 4 (4 measured)
latency change    = 0.00712475
throughput change = 0.0141414
Class 0:
Packet latency average = 21.8726
	minimum = 7
	maximum = 53
Network latency average = 21.8726
	minimum = 7
	maximum = 53
Slowest packet = 32165
Flit latency average = 21.9693
	minimum = 7
	maximum = 57
Slowest flit = 32030
Fragmentation average = 0
	minimum = 0
	maximum = 0
Injected packet rate average = 0.010475
	minimum = 0.0072 (at node 5)
	maximum = 0.0144 (at node 15)
Accepted packet rate average = 0.010575
	minimum = 0.006 (at node 9)
	maximum = 0.014 (at node 3)
Injected flit rate average = 0.010475
	minimum = 0.0072 (at node 5)
	maximum = 0.0144 (at node 15)
Accepted flit rate average= 0.010575
	minimum = 0.006 (at node 9)
	maximum = 0.014 (at node 3)
Injected packet length average = 1
Accepted packet length average = 1
Total in-flight flits = 3 (3 measured)
latency change    = 0.0113022
throughput change = 0.0248227
Class 0:
Packet latency average = 21.8966
	minimum = 7
	maximum = 53
Network latency average = 21.8966
	minimum = 7
	maximum = 53
Slowest packet = 32165
Flit latency average = 21.9765
	minimum = 7
	maximum = 57
Slowest flit = 32030
Fragmentation average = 0
	minimum = 0
	maximum = 0
Injected packet rate average = 0.0105
	minimum = 0.00733333 (at node 5)
	maximum = 0.014 (at node 15)
Accepted packet rate average = 0.010625
	minimum = 0.00566667 (at node 11)
	maximum = 0.0133333 (at node 3)
Injected flit rate average = 0.0105
	minimum = 0.00733333 (at node 5)
	maximum = 0.014 (at node 15)
Accepted flit rate average= 0.010625
	minimum = 0.00566667 (at node 11)
	maximum = 0.0133333 (at node 3)
Injected packet length average = 1
Accepted packet length average = 1
Total in-flight flits = 1 (1 measured)
latency change    = 0.00109716
throughput change = 0.00470588
Draining all recorded packets ...
Draining remaining packets ...
Time taken is 4539 cycles
Class 0:
Packet latency average = 23.2439
	minimum = 7
	maximum = 59
Network latency average = 23.2439
	minimum = 7
	maximum = 59
Slowest packet = 32581
Flit latency average = 23.2439
	minimum = 7
	maximum = 59
Slowest flit = 32581
Fragmentation average = 0
	minimum = 0
	maximum = 0
Injected packet rate average = 0.010625
	minimum = 0.004 (at node 6)
	maximum = 0.022 (at node 2)
Accepted packet rate average = 0.01025
	minimum = 0.004 (at node 1)
	maximum = 0.016 (at node 7)
Injected flit rate average = 0.010625
	minimum = 0.004 (at node 6)
	maximum = 0.022 (at node 2)
Accepted flit rate average= 0.01025
	minimum = 0.004 (at node 1)
	maximum = 0.016 (at node 7)
Injected packet length average = 1
Accepted packet length average = 1
Total in-flight flits = 3 (0 measured)
latency change    = 1
throughput change = 1
Class 0:
Packet latency average = 21.503
	minimum = 7
	maximum = 59
Network latency average = 21.503
	minimum = 7
	maximum = 59
Slowest packet = 32581
Flit latency average = 21.503
	minimum = 7
	maximum = 59
Slowest flit = 32581
Fragmentation average = 0
	minimum = 0
	maximum = 0
Injected packet rate average = 0.0106875
	minimum = 0.007 (at node 4)
	maximum = 0.018 (at node 0)
Accepted packet rate average = 0.0105625
	minimum = 0.004 (at node 1)
	maximum = 0.019 (at node 6)
Injected flit rate average = 0.0106875
	minimum = 0.007 (at node 4)
	maximum = 0.018 (at node 0)
Accepted flit rate average= 0.0105625
	minimum = 0.004 (at node 1)
	maximum = 0.019 (at node 6)
Injected packet length average = 1
Accepted packet length average = 1
Total in-flight flits = 2 (0 measured)
latency change    = 0.080963
throughput change = 0.0295858
Class 0:
Packet latency average = 22.3936
	minimum = 7
	maximum = 58
Network latency average = 22.3936
	minimum = 7
	maximum = 58
Slowest packet = 32746
Flit latency average = 22.3936
	minimum = 7
	maximum = 58
Slowest flit = 32746
Fragmentation average = 0
	minimum = 0
	maximum = 0
Injected packet rate average = 0.011875
	minimum = 0.006 (at node 5)
	maximum = 0.02 (at node 1)
Accepted packet rate average = 0.01175
	minimum = 0.004 (at node 10)
	maximum = 0.024 (at node 3)
Injected flit rate average = 0.011875
	minimum = 0.006 (at node 5)
	maximum = 0.02 (at node 1)
Accepted flit rate average= 0.01175
	minimum = 0.004 (at node 10)
	maximum = 0.024 (at node 3)
Injected packet length average = 1
Accepted packet length average = 1
Total in-flight flits = 3 (0 measured)
latency change    = 0.0397729
throughput change = 0.101064
Warmed up ...Time used is 1500 cycles
Class 0:
Packet latency average = 23.4638
	minimum = 7
	maximum = 52
Network latency average = 23.4638
	minimum = 7
	maximum = 52
Slowest packet = 32868
Flit latency average = 23.6111
	minimum = 7
	maximum = 52
Slowest flit = 32868
Fragmentation average = 0
	minimum = 0
	maximum = 0
Injected packet rate average = 0.00925
	minimum = 0 (at node 13)
	maximum = 0.024 (at node 10)
Accepted packet rate average = 0.009
	minimum = 0.002 (at node 4)
	maximum = 0.018 (at node 3)
Injected flit rate average = 0.00925
	minimum = 0 (at node 13)
	maximum = 0.024 (at node 10)
Accepted flit rate average= 0.009
	minimum = 0.002 (at node 4)
	maximum = 0.018 (at node 3)
Injected packet length average = 1
Accepted packet length average = 1
Total in-flight flits = 5 (5 measured)
latency change    = 0.0456087
throughput change = 0.305556
Class 0:
Packet latency average = 22.5938
	minimum = 7
	maximum = 52
Network latency average = 22.5938
	minimum = 7
	maximum = 52
Slowest packet = 32868
Flit latency average = 22.6748
	minimum = 7
	maximum = 52
Slowest flit = 32868
Fragmentation average = 0
	minimum = 0
	maximum = 0
Injected packet rate average = 0.0103125
	minimum = 0.003 (at node 13)
	maximum = 0.019 (at node 10)
Accepted packet rate average = 0.0101875
	minimum = 0.003 (at node 4)
	maximum = 0.016 (at node 12)
Injected flit rate average = 0.0103125
	minimum = 0.003 (at node 13)
	maximum = 0.019 (at node 10)
Accepted flit rate average= 0.0101875
	minimum = 0.003 (at node 4)
	maximum = 0.016 (at node 12)
Injected packet length average = 1
Accepted packet length average = 1
Total in-flight flits = 5 (5 measured)
latency change    = 0.038507
throughput change = 0.116564
Class 0:
Packet latency average = 22.4316
	minimum = 7
	maximum = 57
Network latency average = 22.4316
	minimum = 7
	maximum = 57
Slowest packet = 32979
Flit latency average = 22.4895
	minimum = 7
	maximum = 57
Slowest flit = 32979
Fragmentation average = 0
	minimum = 0
	maximum = 0
Injected packet rate average = 0.00979167
	minimum = 0.004 (at node 8)
	maximum = 0.016 (at node 10)
Accepted packet rate average = 0.009875
	minimum = 0.004 (at node 4)
	maximum = 0.018 (at node 12)
Injected flit rate average = 0.00979167
	minimum = 0.004 (at node 8)
	maximum = 0.016 (at node 10)
Accepted flit rate average= 0.009875
	minimum = 0.004 (at node 4)
	maximum = 0.018 (at node 12)
Injected packet length average = 1
Accepted packet length average = 1
Total in-flight flits = 1 (1 measured)
latency change    = 0.00722757
throughput change = 0.0316456
Class 0:
Packet latency average = 22.1895
	minimum = 7
	maximum = 57
Network latency average = 22.1895
	minimum = 7
	maximum = 57
Slowest packet = 32979
Flit latency average = 22.2362
	minimum = 7
	maximum = 57
Slowest flit = 32979
Fragmentation average = 0
	minimum = 0
	maximum = 0
Injected packet rate average = 0.0095625
	minimum = 0.0045 (at node 8)
	maximum = 0.015 (at node 10)
Accepted packet rate average = 0.00965625
	minimum = 0.007 (at node 4)
	maximum = 0.0175 (at node 12)
Injected flit rate average = 0.0095625
	minimum = 0.0045 (at node 8)
	maximum = 0.015 (at node 10)
Accepted flit rate average= 0.00965625
	minimum = 0.007 (at node 4)
	maximum = 0.0175 (at node 12)
Injected packet length average = 1
Accepted packet length average = 1
Total in-flight flits = 0 (0 measured)
latency change    = 0.0109097
throughput change = 0.0226537
Class 0:
Packet latency average = 22.0789
	minimum = 7
	maximum = 57
Network latency average = 22.0789
	minimum = 7
	maximum = 57
Slowest packet = 32979
Flit latency average = 22.1162
	minimum = 7
	maximum = 57
Slowest flit = 32979
Fragmentation average = 0
	minimum = 0
	maximum = 0
Injected packet rate average = 0.0099
	minimum = 0.0056 (at node 4)
	maximum = 0.0144 (at node 10)
Accepted packet rate average = 0.0099
	minimum = 0.0072 (at node 14)
	maximum = 0.016 (at node 12)
Injected flit rate average = 0.0099
	minimum = 0.0056 (at node 4)
	maximum = 0.0144 (at node 10)
Accepted flit rate average= 0.0099
	minimum = 0.0072 (at node 14)
	maximum = 0.016 (at node 12)
Injected packet length average = 1
Accepted packet length average = 1
Total in-flight flits = 3 (3 measured)
latency change    = 0.00501212
throughput change = 0.0246212
Draining all recorded packets ...
Draining remaining packets ...
Time taken is 4041 cycles
Class 0:
Packet latency average = 22.2841
	minimum = 7
	maximum = 56
Network latency average = 22.2841
	minimum = 7
	maximum = 56
Slowest packet = 33274
Flit latency average = 22.2841
	minimum = 7
	maximum = 56
Slowest flit = 33274
Fragmentation average = 0
	minimum = 0
	maximum = 0
Injected packet rate average = 0.01175
	minimum = 0.006 (at node 2)
	maximum = 0.02 (at node 5)
Accepted packet rate average = 0.011
	minimum = 0.004 (at node 8)
	maximum = 0.022 (at node 15)
Injected flit rate average = 0.01175
	minimum = 0.006 (at node 2)
	maximum = 0.02 (at node 5)
Accepted flit rate average= 0.011
	minimum = 0.004 (at node 8)
	maximum = 0.022 (at node 15)
Injected packet length average = 1
Accepted packet length average = 1
Total in-flight flits = 6 (0 measured)
latency change    = 1
throughput change = 1
Class 0:
Packet latency average = 22.2711
	minimum = 7
	maximum = 56
Network latency average = 22.2711
	minimum = 7
	maximum = 56
Slowest packet = 33274
Flit latency average = 22.2711
	minimum = 7
	maximum = 56
Slowest flit = 33274
Fragmentation average = 0
	minimum = 0
	maximum = 0
Injected packet rate average = 0.0104375
	minimum = 0.007 (at node 1)
	maximum = 0.015 (at node 11)
Accepted packet rate average = 0.010375
	minimum = 0.007 (at node 2)
	maximum = 0.015 (at node 7)
Injected flit rate average = 0.0104375
	minimum = 0.007 (at node 1)
	maximum = 0.015 (at node 11)
Accepted flit rate average= 0.010375
	minimum = 0.007 (at node 2)
	maximum = 0.015 (at node 7)
Injected packet length average = 1
Accepted packet length average = 1
Total in-flight flits = 1 (0 measured)
latency change    = 0.000584012
throughput change = 0.060241
Class 0:
Packet latency average = 19.3151
	minimum = 7
	maximum = 42
Network latency average = 19.3151
	minimum = 7
	maximum = 42
Slowest packet = 33396
Flit latency average = 19.3151
	minimum = 7
	maximum = 42
Slowest flit = 33396
Fragmentation average = 0
	minimum = 0
	maximum = 0
Injected packet rate average = 0.009625
	minimum = 0.002 (at node 1)
	maximum = 0.02 (at node 6)
Accepted packet rate average = 0.009125
	minimum = 0.004 (at node 3)
	maximum = 0.016 (at node 6)
Injected flit rate average = 0.009625
	minimum = 0.002 (at node 1)
	maximum = 0.02 (at node 6)
Accepted flit rate average= 0.009125
	minimum = 0.004 (at node 3)
	maximum = 0.016 (at node 6)
Injected packet length average = 1
Accepted packet length average = 1
Total in-flight flits = 5 (0 measured)
latency change    = 0.153042
throughput change = 0.136986
Warmed up ...Time used is 1500 cycles
Class 0:
Packet latency average = 20.9125
	minimum = 7
	maximum = 52
Network latency average = 20.9125
	minimum = 7
	maximum = 52
Slowest packet = 33485
Flit latency average = 21.0941
	minimum = 7
	maximum = 52
Slowest flit = 33485
Fragmentation average = 0
	minimum = 0
	maximum = 0
Injected packet rate average = 0.010625
	minimum = 0.004 (at node 3)
	maximum = 0.016 (at node 2)
Accepted packet rate average = 0.010625
	minimum = 0.004 (at node 1)
	maximum = 0.018 (at node 11)
Injected flit rate average = 0.010625
	minimum = 0.004 (at node 3)
	maximum = 0.016 (at node 2)
Accepted flit rate average= 0.010625
	minimum = 0.004 (at node 1)
	maximum = 0.018 (at node 11)
Injected packet length average = 1
Accepted packet length average = 1
Total in-flight flits = 5 (5 measured)
latency change    = 0.0763864
throughput change = 0.141176
Class 0:
Packet latency average = 20.8707
	minimum = 7
	maximum = 52
Network latency average = 20.8707
	minimum = 7
	maximum = 52
Slowest packet = 33485
Flit latency average = 20.9737
	minimum = 7
	maximum = 52
Slowest flit = 33485
Fragmentation average = 0
	minimum = 0
	maximum = 0
Injected packet rate average = 0.0094375
	minimum = 0.005 (at node 6)
	maximum = 0.012 (at node 2)
Accepted packet rate average = 0.0095
	minimum = 0.006 (at node 4)
	maximum = 0.015 (at node 11)
Injected flit rate average = 0.0094375
	minimum = 0.005 (at node 6)
	maximum = 0.012 (at node 2)
Accepted flit rate average= 0.0095
	minimum = 0.006 (at node 4)
	maximum = 0.015 (at node 11)
Injected packet length average = 1
Accepted packet length average = 1
Total in-flight flits = 4 (4 measured)
latency change    = 0.00200049
throughput change = 0.118421
Class 0:
Packet latency average = 20.8407
	minimum = 7
	maximum = 55
Network latency average = 20.8407
	minimum = 7
	maximum = 55
Slowest packet = 33637
Flit latency average = 20.9091
	minimum = 7
	maximum = 55
Slowest flit = 33637
Fragmentation average = 0
	minimum = 0
	maximum = 0
Injected packet rate average = 0.00945833
	minimum = 0.00733333 (at node 0)
	maximum = 0.012 (at node 2)
Accepted packet rate average = 0.009625
	minimum = 0.00533333 (at node 4)
	maximum = 0.0146667 (at node 11)
Injected flit rate average = 0.00945833
	minimum = 0.00733333 (at node 0)
	maximum = 0.012 (at node 2)
Accepted flit rate average= 0.009625
	minimum = 0.00533333 (at node 4)
	maximum = 0.0146667 (at node 11)
Injected packet length average = 1
Accepted packet length average = 1
Total in-flight flits = 1 (1 measured)
latency change    = 0.00144143
throughput change = 0.012987
Class 0:
Packet latency average = 20.6926
	minimum = 7
	maximum = 55
Network latency average = 20.6926
	minimum = 7
	maximum = 55
Slowest packet = 33637
Flit latency average = 20.7475
	minimum = 7
	maximum = 55
Slowest flit = 33637
Fragmentation average = 0
	minimum = 0
	maximum = 0
Injected packet rate average = 0.00934375
	minimum = 0.007 (at node 0)
	maximum = 0.0115 (at node 8)
Accepted packet rate average = 0.00940625
	minimum = 0.0065 (at node 4)
	maximum = 0.0145 (at node 11)
Injected flit rate average = 0.00934375
	minimum = 0.007 (at node 0)
	maximum = 0.0115 (at node 8)
Accepted flit rate average= 0.00940625
	minimum = 0.0065 (at node 4)
	maximum = 0.0145 (at node 11)
Injected packet length average = 1
Accepted packet length average = 1
Total in-flight flits = 3 (3 measured)
latency change    = 0.00715911
throughput change = 0.0232558
Class 0:
Packet latency average = 21.0811
	minimum = 7
	maximum = 55
Network latency average = 21.0811
	minimum = 7
	maximum = 55
Slowest packet = 33637
Flit latency average = 21.12
	minimum = 7
	maximum = 55
Slowest flit = 33637
Fragmentation average = 0
	minimum = 0
	maximum = 0
Injected packet rate average = 0.009325
	minimum = 0.0068 (at node 9)
	maximum = 0.012 (at node 8)
Accepted packet rate average = 0.009375
	minimum = 0.0072 (at node 3)
	maximum = 0.0136 (at node 11)
Injected flit rate average = 0.009325
	minimum = 0.0068 (at node 9)
	maximum = 0.012 (at node 8)
Accepted flit rate average= 0.009375
	minimum = 0.0072 (at node 3)
	maximum = 0.0136 (at node 11)
Injected packet length average = 1
Accepted packet length average = 1
Total in-flight flits = 3 (3 measured)
latency change    = 0.0184295
throughput change = 0.00333333
Draining all recorded packets ...
Draining remaining packets ...
Time taken is 4071 cycles
====== Overall Traffic Statistics ======
====== Traffic class 0 ======
Packet latency average = 21.6918 (50 samples)
	minimum = 7 (50 samples)
	maximum = 58.92 (50 samples)
Network latency average = 21.6918 (50 samples)
	minimum = 7 (50 samples)
	maximum = 58.92 (50 samples)
Flit latency average = 21.7321 (50 samples)
	minimum = 7 (50 samples)
	maximum = 59.08 (50 samples)
Fragmentation average = 0 (50 samples)
	minimum = 0 (50 samples)
	maximum = 0 (50 samples)
Injected packet rate average = 0.00995617 (50 samples)
	minimum = 0.00669324 (50 samples)
	maximum = 0.0133483 (50 samples)
Accepted packet rate average = 0.0099628 (50 samples)
	minimum = 0.00670381 (50 samples)
	maximum = 0.0136082 (50 samples)
Injected flit rate average = 0.00995617 (50 samples)
	minimum = 0.00669324 (50 samples)
	maximum = 0.0133483 (50 samples)
Accepted flit rate average = 0.0099628 (50 samples)
	minimum = 0.00670381 (50 samples)
	maximum = 0.0136082 (50 samples)
Injected packet size average = 1 (50 samples)
Accepted packet size average = 1 (50 samples)
Hops average = 3.90742 (50 samples)
Total run time 4.83502
