BEGIN Configuration File: /tmp/tmptvviom51.cfg
topology = mesh;
k = 4;
n = 2;
routing_function = planar_adapt;
num_vcs = 4;
vc_buf_size = 4;
wait_for_tail_credit = 1;
vc_allocator = islip;
sw_allocator = islip;
alloc_iters = 1;
credit_delay = 2;
routing_delay = 1;
vc_alloc_delay = 1;
sw_alloc_delay = 1;
input_speedup = 2;
output_speedup = 1;
internal_speedup = 1.0;
traffic = uniform;
packet_size = 1;
sim_type = latency;
injection_rate = 0.05;
warmup_periods = 3;
sample_period = 500;
sim_count = 50;
seed = 2;
link_failures = 4;
fail_seed = 303;

END Configuration File: /tmp/tmptvviom51.cfg
failure at node 9, channel 2 (1/4)
failure at node 15, channel 3 (2/4)
failure at node 2, channel 2 (3/4)
failure at node 7, channel 3 (4/4)
Class 0:
Packet latency average = 24.2534
	minimum = 7
	maximum = 88
Network latency average = 24.2534
	minimum = 7
	maximum = 88
Slowest packet = 156
Flit latency average = 24.2534
	minimum = 7
	maximum = 88
Slowest flit = 156
Fragmentation average = 0
	minimum = 0
	maximum = 0
Injected packet rate average = 0.048875
	minimum = 0.03 (at node 5)
	maximum = 0.068 (at node 10)
Accepted packet rate average = 0.046375
	minimum = 0.036 (at node 12)
	maximum = 0.068 (at node 9)
Injected flit rate average = 0.048875
	minimum = 0.03 (at node 5)
	maximum = 0.068 (at node 10)
Accepted flit rate average= 0.046375
	minimum = 0.036 (at node 12)
	maximum = 0.068 (at node 9)
Injected packet length average = 1
Accepted packet length average = 1
Total in-flight flits = 20 (0 measured)
latency change    = 1
throughput change = 1
Class 0:
Packet latency average = 24.4771
	minimum = 7
	maximum = 94
Network latency average = 24.4771
	minimum = 7
	maximum = 94
Slowest packet = 403
Flit latency average = 24.4771
	minimum = 7
	maximum = 94
Slowest flit = 403
Fragmentation average = 0
	minimum = 0
	maximum = 0
Injected packet rate average = 0.04975
	minimum = 0.035 (at node 8)
	maximum = 0.064 (at node 10)
Accepted packet rate average = 0.0478125
	minimum = 0.038 (at node 2)
	maximum = 0.058 (at node 10)
Injected flit rate average = 0.04975
	minimum = 0.035 (at node 8)
	maximum = 0.064 (at node 10)
Accepted flit rate average= 0.0478125
	minimum = 0.038 (at node 2)
	maximum = 0.058 (at node 10)
Injected packet length average = 1
Accepted packet length average = 1
Total in-flight flits = 31 (0 measured)
latency change    = 0.00914139
throughput change = 0.0300654
Class 0:
Packet latency average = 25.5517
	minimum = 7
	maximum = 100
Network latency average = 25.5517
	minimum = 7
	maximum = 100
Slowest packet = 989
Flit latency average = 25.5517
	minimum = 7
	maximum = 100
Slowest flit = 989
Fragmentation average = 0
	minimum = 0
	maximum = 0
Injected packet rate average = 0.04475
	minimum = 0.026 (at node 1)
	maximum = 0.06 (at node 10)
Accepted packet rate average = 0.047125
	minimum = 0.022 (at node 11)
	maximum = 0.062 (at node 0)
Injected flit rate average = 0.04475
	minimum = 0.026 (at node 1)
	maximum = 0.06 (at node 10)
Accepted flit rate average= 0.047125
	minimum = 0.022 (at node 11)
	maximum = 0.062 (at node 0)
Injected packet length average = 1
Accepted packet length average = 1
Total in-flight flits = 12 (0 measured)
latency change    = 0.0420559
throughput change = 0.0145889
Warmed up ...Time used is 1500 cycles
Class 0:
Packet latency average = 22.9338
	minimum = 7
	maximum = 85
Network latency average = 22.9338
	minimum = 7
	maximum = 85
Slowest packet = 1277
Flit latency average = 23.0762
	minimum = 7
	maximum = 85
Slowest flit = 1277
Fragmentation average = 0
	minimum = 0
	maximum = 0
Injected packet rate average = 0.05375
	minimum = 0.038 (at node 15)
	maximum = 0.08 (at node 10)
Accepted packet rate average = 0.0525
	minimum = 0.03 (at node 4)
	maximum = 0.078 (at node 5)
Injected flit rate average = 0.05375
	minimum = 0.038 (at node 15)
	maximum = 0.08 (at node 10)
Accepted flit rate average= 0.0525
	minimum = 0.03 (at node 4)
	maximum = 0.078 (at node 5)
Injected packet length average = 1
Accepted packet length average = 1
Total in-flight flits = 22 (22 measured)
latency change    = 0.11415
throughput change = 0.102381
Class 0:
Packet latency average = 22.9098
	minimum = 7
	maximum = 98
Network latency average = 22.9098
	minimum = 7
	maximum = 98
Slowest packet = 1722
Flit latency average = 22.985
	minimum = 7
	maximum = 98
Slowest flit = 1722
Fragmentation average = 0
	minimum = 0
	maximum = 0
Injected packet rate average = 0.050125
	minimum = 0.032 (at node 15)
	maximum = 0.07 (at node 10)
Accepted packet rate average = 0.0499375
	minimum = 0.04 (at node 9)
	maximum = 0.061 (at node 5)
Injected flit rate average = 0.050125
	minimum = 0.032 (at node 15)
	maximum = 0.07 (at node 10)
Accepted flit rate average= 0.0499375
	minimum = 0.04 (at node 9)
	maximum = 0.061 (at node 5)
Injected packet length average = 1
Accepted packet length average = 1
Total in-flight flits = 15 (15 measured)
latency change    = 0.00104931
throughput change = 0.0513141
Class 0:
Packet latency average = 23.5525
	minimum = 7
	maximum = 98
Network latency average = 23.5525
	minimum = 7
	maximum = 98
Slowest packet = 1722
Flit latency average = 23.5968
	minimum = 7
	maximum = 98
Slowest flit = 1722
Fragmentation average = 0
	minimum = 0
	maximum = 0
Injected packet rate average = 0.049625
	minimum = 0.0393333 (at node 15)
	maximum = 0.066 (at node 10)
Accepted packet rate average = 0.0492917
	minimum = 0.042 (at node 9)
	maximum = 0.058 (at node 8)
Injected flit rate average = 0.049625
	minimum = 0.0393333 (at node 15)
	maximum = 0.066 (at node 10)
Accepted flit rate average= 0.0492917
	minimum = 0.042 (at node 9)
	maximum = 0.058 (at node 8)
Injected packet length average = 1
Accepted packet length average = 1
Total in-flight flits = 20 (20 measured)
latency change    = 0.0272894
throughput change = 0.0131023
Class 0:
Packet latency average = 23.4981
	minimum = 7
	maximum = 99
Network latency average = 23.4981
	minimum = 7
	maximum = 99
Slowest packet = 2442
Flit latency average = 23.5311
	minimum = 7
	maximum = 99
Slowest flit = 2442
Fragmentation average = 0
	minimum = 0
	maximum = 0
Injected packet rate average = 0.0506562
	minimum = 0.0425 (at node 1)
	maximum = 0.0695 (at node 10)
Accepted packet rate average = 0.05025
	minimum = 0.042 (at node 9)
	maximum = 0.058 (at node 8)
Injected flit rate average = 0.0506562
	minimum = 0.0425 (at node 1)
	maximum = 0.0695 (at node 10)
Accepted flit rate average= 0.05025
	minimum = 0.042 (at node 9)
	maximum = 0.058 (at node 8)
Injected packet length average = 1
Accepted packet length average = 1
Total in-flight flits = 25 (25 measured)
latency change    = 0.00231503
throughput change = 0.0190713
Class 0:
Packet latency average = 23.4401
	minimum = 7
	maximum = 99
Network latency average = 23.4401
	minimum = 7
	maximum = 99
Slowest packet = 2442
Flit latency average = 23.4664
	minimum = 7
	maximum = 99
Slowest flit = 2442
Fragmentation average = 0
	minimum = 0
	maximum = 0
Injected packet rate average = 0.051225
	minimum = 0.0404 (at node 1)
	maximum = 0.0648 (at node 10)
Accepted packet rate average = 0.051025
	minimum = 0.042 (at node 9)
	maximum = 0.0592 (at node 15)
Injected flit rate average = 0.051225
	minimum = 0.0404 (at node 1)
	maximum = 0.0648 (at node 10)
Accepted flit rate average= 0.051025
	minimum = 0.042 (at node 9)
	maximum = 0.0592 (at node 15)
Injected packet length average = 1
Accepted packet length average = 1
Total in-flight flits = 20 (20 measured)
latency change    = 0.00247448
throughput change = 0.0151886
Draining all recorded packets ...
Draining remaining packets ...
Time taken is 4110 cycles
Class 0:
Packet latency average = 24.3834
	minimum = 7
	maximum = 103
Network latency average = 24.3834
	minimum = 7
	maximum = 103
Slowest packet = 3441
Flit latency average = 24.3834
	minimum = 7
	maximum = 103
Slowest flit = 3441
Fragmentation average = 0
	minimum = 0
	maximum = 0
Injected packet rate average = 0.05125
	minimum = 0.042 (at node 4)
	maximum = 0.064 (at node 13)
Accepted packet rate average = 0.04825
	minimum = 0.032 (at node 12)
	maximum = 0.07 (at node 2)
Injected flit rate average = 0.05125
	minimum = 0.042 (at node 4)
	maximum = 0.064 (at node 13)
Accepted flit rate average= 0.04825
	minimum = 0.032 (at node 12)
	maximum = 0.07 (at node 2)
Injected packet length average = 1
Accepted packet length average = 1
Total in-flight flits = 24 (0 measured)
latency change    = 1
throughput change = 1
Class 0:
Packet latency average = 24.2619
	minimum = 7
	maximum = 105
Network latency average = 24.2619
	minimum = 7
	maximum = 105
Slowest packet = 3780
Flit latency average = 24.2619
	minimum = 7
	maximum = 105
Slowest flit = 3780
Fragmentation average = 0
	minimum = 0
	maximum = 0
Injected packet rate average = 0.0523125
	minimum = 0.045 (at node 0)
	maximum = 0.066 (at node 8)
Accepted packet rate average = 0.0510625
	minimum = 0.037 (at node 8)
	maximum = 0.066 (at node 2)
Injected flit rate average = 0.0523125
	minimum = 0.045 (at node 0)
	maximum = 0.066 (at node 8)
Accepted flit rate average= 0.0510625
	minimum = 0.037 (at node 8)
	maximum = 0.066 (at node 2)
Injected packet length average = 1
Accepted packet length average = 1
Total in-flight flits = 20 (0 measured)
latency change    = 0.00500726
throughput change = 0.0550796
Class 0:
Packet latency average = 24.8535
	minimum = 7
	maximum = 116
Network latency average = 24.8535
	minimum = 7
	maximum = 116
Slowest packet = 4161
Flit latency average = 24.8535
	minimum = 7
	maximum = 116
Slowest flit = 4161
Fragmentation average = 0
	minimum = 0
	maximum = 0
Injected packet rate average = 0.053375
	minimum = 0.032 (at node 11)
	maximum = 0.07 (at node 7)
Accepted packet rate average = 0.05375
	minimum = 0.03 (at node 14)
	maximum = 0.074 (at node 0)
Injected flit rate average = 0.053375
	minimum = 0.032 (at node 11)
	maximum = 0.07 (at node 7)
Accepted flit rate average= 0.05375
	minimum = 0.03 (at node 14)
	maximum = 0.074 (at node 0)
Injected packet length average = 1
Accepted packet length average = 1
Total in-flight flits = 17 (0 measured)
latency change    = 0.0238017
throughput change = 0.05
Warmed up ...Time used is 1500 cycles
Class 0:
Packet latency average = 22.3542
	minimum = 7
	maximum = 77
Network latency average = 22.3542
	minimum = 7
	maximum = 77
Slowest packet = 4594
Flit latency average = 22.6302
	minimum = 7
	maximum = 77
Slowest flit = 4594
Fragmentation average = 0
	minimum = 0
	maximum = 0
Injected packet rate average = 0.048875
	minimum = 0.036 (at node 15)
	maximum = 0.07 (at node 13)
Accepted packet rate average = 0.048
	minimum = 0.036 (at node 13)
	maximum = 0.074 (at node 0)
Injected flit rate average = 0.048875
	minimum = 0.036 (at node 15)
	maximum = 0.07 (at node 13)
Accepted flit rate average= 0.048
	minimum = 0.036 (at node 13)
	maximum = 0.074 (at node 0)
Injected packet length average = 1
Accepted packet length average = 1
Total in-flight flits = 24 (24 measured)
latency change    = 0.111803
throughput change = 0.119792
Class 0:
Packet latency average = 22.8736
	minimum = 7
	maximum = 97
Network latency average = 22.8685
	minimum = 7
	maximum = 97
Slowest packet = 4836
Flit latency average = 22.9889
	minimum = 7
	maximum = 97
Slowest flit = 4836
Fragmentation average = 0
	minimum = 0
	maximum = 0
Injected packet rate average = 0.0504375
	minimum = 0.045 (at node 12)
	maximum = 0.061 (at node 5)
Accepted packet rate average = 0.0505
	minimum = 0.04 (at node 14)
	maximum = 0.066 (at node 10)
Injected flit rate average = 0.0504375
	minimum = 0.045 (at node 12)
	maximum = 0.061 (at node 5)
Accepted flit rate average= 0.0505
	minimum = 0.04 (at node 14)
	maximum = 0.066 (at node 10)
Injected packet length average = 1
Accepted packet length average = 1
Total in-flight flits = 16 (16 measured)
latency change    = 0.0227054
throughput change = 0.049505
Class 0:
Packet latency average = 23.0461
	minimum = 7
	maximum = 97
Network latency average = 23.0427
	minimum = 7
	maximum = 97
Slowest packet = 4836
Flit latency average = 23.122
	minimum = 7
	maximum = 97
Slowest flit = 4836
Fragmentation average = 0
	minimum = 0
	maximum = 0
Injected packet rate average = 0.0499583
	minimum = 0.044 (at node 11)
	maximum = 0.0566667 (at node 3)
Accepted packet rate average = 0.0495417
	minimum = 0.0393333 (at node 14)
	maximum = 0.0566667 (at node 7)
Injected flit rate average = 0.0499583
	minimum = 0.044 (at node 11)
	maximum = 0.0566667 (at node 3)
Accepted flit rate average= 0.0495417
	minimum = 0.0393333 (at node 14)
	maximum = 0.0566667 (at node 7)
Injected packet length average = 1
Accepted packet length average = 1
Total in-flight flits = 27 (27 measured)
latency change    = 0.00748489
throughput change = 0.019344
Class 0:
Packet latency average = 23.3401
	minimum = 7
	maximum = 97
Network latency average = 23.3376
	minimum = 7
	maximum = 97
Slowest packet = 4836
Flit latency average = 23.3935
	minimum = 7
	maximum = 97
Slowest flit = 4836
Fragmentation average = 0
	minimum = 0
	maximum = 0
Injected packet rate average = 0.0500625
	minimum = 0.044 (at node 11)
	maximum = 0.06 (at node 5)
Accepted packet rate average = 0.049875
	minimum = 0.043 (at node 14)
	maximum = 0.056 (at node 10)
Injected flit rate average = 0.0500625
	minimum = 0.044 (at node 11)
	maximum = 0.06 (at node 5)
Accepted flit rate average= 0.049875
	minimum = 0.043 (at node 14)
	maximum = 0.056 (at node 10)
Injected packet length average = 1
Accepted packet length average = 1
Total in-flight flits = 23 (23 measured)
latency change    = 0.0125969
throughput change = 0.00668338
Draining all recorded packets ...
Draining remaining packets ...
Time taken is 3589 cycles
Class 0:
Packet latency average = 23.3827
	minimum = 7
	maximum = 80
Network latency average = 23.3827
	minimum = 7
	maximum = 80
Slowest packet = 6299
Flit latency average = 23.3827
	minimum = 7
	maximum = 80
Slowest flit = 6299
Fragmentation average = 0
	minimum = 0
	maximum = 0
Injected packet rate average = 0.048375
	minimum = 0.024 (at node 9)
	maximum = 0.074 (at node 4)
Accepted packet rate average = 0.046375
	minimum = 0.03 (at node 3)
	maximum = 0.062 (at node 11)
Injected flit rate average = 0.048375
	minimum = 0.024 (at node 9)
	maximum = 0.074 (at node 4)
Accepted flit rate average= 0.046375
	minimum = 0.03 (at node 3)
	maximum = 0.062 (at node 11)
Injected packet length average = 1
Accepted packet length average = 1
Total in-flight flits = 16 (0 measured)
latency change    = 1
throughput change = 1
Class 0:
Packet latency average = 25.5193
	minimum = 7
	maximum = 167
Network latency average = 25.5193
	minimum = 7
	maximum = 167
Slowest packet = 6714
Flit latency average = 25.5193
	minimum = 7
	maximum = 167
Slowest flit = 6714
Fragmentation average = 0
	minimum = 0
	maximum = 0
Injected packet rate average = 0.0495625
	minimum = 0.035 (at node 9)
	maximum = 0.063 (at node 0)
Accepted packet rate average = 0.0485
	minimum = 0.038 (at node 13)
	maximum = 0.059 (at node 5)
Injected flit rate average = 0.0495625
	minimum = 0.035 (at node 9)
	maximum = 0.063 (at node 0)
Accepted flit rate average= 0.0485
	minimum = 0.038 (at node 13)
	maximum = 0.059 (at node 5)
Injected packet length average = 1
Accepted packet length average = 1
Total in-flight flits = 17 (0 measured)
latency change    = 0.083724
throughput change = 0.0438144
Class 0:
Packet latency average = 25.6667
	minimum = 7
	maximum = 104
Network latency average = 25.6667
	minimum = 7
	maximum = 104
Slowest packet = 6954
Flit latency average = 25.6667
	minimum = 7
	maximum = 104
Slowest flit = 6954
Fragmentation average = 0
	minimum = 0
	maximum = 0
Injected packet rate average = 0.049875
	minimum = 0.032 (at node 10)
	maximum = 0.068 (at node 3)
Accepted packet rate average = 0.049875
	minimum = 0.032 (at node 6)
	maximum = 0.07 (at node 4)
Injected flit rate average = 0.049875
	minimum = 0.032 (at node 10)
	maximum = 0.068 (at node 3)
Accepted flit rate average= 0.049875
	minimum = 0.032 (at node 6)
	maximum = 0.07 (at node 4)
Injected packet length average = 1
Accepted packet length average = 1
Total in-flight flits = 17 (0 measured)
latency change    = 0.00574039
throughput change = 0.0275689
Warmed up ...Time used is 1500 cycles
Class 0:
Packet latency average = 24.3523
	minimum = 7
	maximum = 93
Network latency average = 24.3523
	minimum = 7
	maximum = 93
Slowest packet = 7367
Flit latency average = 24.5806
	minimum = 7
	maximum = 93
Slowest flit = 7367
Fragmentation average = 0
	minimum = 0
	maximum = 0
Injected packet rate average = 0.051
	minimum = 0.038 (at node 2)
	maximum = 0.066 (at node 9)
Accepted packet rate average = 0.050375
	minimum = 0.032 (at node 13)
	maximum = 0.074 (at node 2)
Injected flit rate average = 0.051
	minimum = 0.038 (at node 2)
	maximum = 0.066 (at node 9)
Accepted flit rate average= 0.050375
	minimum = 0.032 (at node 13)
	maximum = 0.074 (at node 2)
Injected packet length average = 1
Accepted packet length average = 1
Total in-flight flits = 22 (22 measured)
latency change    = 0.0539716
throughput change = 0.00992556
Class 0:
Packet latency average = 23.5744
	minimum = 7
	maximum = 93
Network latency average = 23.5744
	minimum = 7
	maximum = 93
Slowest packet = 7367
Flit latency average = 23.7064
	minimum = 7
	maximum = 93
Slowest flit = 7367
Fragmentation average = 0
	minimum = 0
	maximum = 0
Injected packet rate average = 0.049875
	minimum = 0.039 (at node 2)
	maximum = 0.066 (at node 14)
Accepted packet rate average = 0.0498125
	minimum = 0.036 (at node 7)
	maximum = 0.061 (at node 10)
Injected flit rate average = 0.049875
	minimum = 0.039 (at node 2)
	maximum = 0.066 (at node 14)
Accepted flit rate average= 0.0498125
	minimum = 0.036 (at node 7)
	maximum = 0.061 (at node 10)
Injected packet length average = 1
Accepted packet length average = 1
Total in-flight flits = 18 (18 measured)
latency change    = 0.0330008
throughput change = 0.0112923
Class 0:
Packet latency average = 23.9075
	minimum = 7
	maximum = 119
Network latency average = 23.9075
	minimum = 7
	maximum = 119
Slowest packet = 8248
Flit latency average = 23.9879
	minimum = 7
	maximum = 119
Slowest flit = 8248
Fragmentation average = 0
	minimum = 0
	maximum = 0
Injected packet rate average = 0.0515417
	minimum = 0.04 (at node 5)
	maximum = 0.062 (at node 0)
Accepted packet rate average = 0.0515833
	minimum = 0.0433333 (at node 7)
	maximum = 0.0646667 (at node 10)
Injected flit rate average = 0.0515417
	minimum = 0.04 (at node 5)
	maximum = 0.062 (at node 0)
Accepted flit rate average= 0.0515833
	minimum = 0.0433333 (at node 7)
	maximum = 0.0646667 (at node 10)
Injected packet length average = 1
Accepted packet length average = 1
Total in-flight flits = 16 (16 measured)
latency change    = 0.0139326
throughput change = 0.0343296
Class 0:
Packet latency average = 23.4007
	minimum = 7
	maximum = 119
Network latency average = 23.4007
	minimum = 7
	maximum = 119
Slowest packet = 8248
Flit latency average = 23.4663
	minimum = 7
	maximum = 119
Slowest flit = 8248
Fragmentation average = 0
	minimum = 0
	maximum = 0
Injected packet rate average = 0.0516563
	minimum = 0.0435 (at node 5)
	maximum = 0.058 (at node 6)
Accepted packet rate average = 0.0515313
	minimum = 0.0445 (at node 7)
	maximum = 0.059 (at node 10)
Injected flit rate average = 0.0516563
	minimum = 0.0435 (at node 5)
	maximum = 0.058 (at node 6)
Accepted flit rate average= 0.0515313
	minimum = 0.0445 (at node 7)
	maximum = 0.059 (at node 10)
Injected packet length average = 1
Accepted packet length average = 1
Total in-flight flits = 21 (21 measured)
latency change    = 0.0216539
throughput change = 0.00101071
Draining all recorded packets ...
Draining remaining packets ...
Time taken is 3607 cycles
Class 0:
Packet latency average = 22.8939
	minimum = 7
	maximum = 100
Network latency average = 22.8939
	minimum = 7
	maximum = 100
Slowest packet = 9248
Flit latency average = 22.8939
	minimum = 7
	maximum = 100
Slowest flit = 9248
Fragmentation average = 0
	minimum = 0
	maximum = 0
Injected packet rate average = 0.049125
	minimum = 0.024 (at node 10)
	maximum = 0.068 (at node 14)
Accepted packet rate average = 0.047125
	minimum = 0.032 (at node 10)
	maximum = 0.06 (at node 7)
Injected flit rate average = 0.049125
	minimum = 0.024 (at node 10)
	maximum = 0.068 (at node 14)
Accepted flit rate average= 0.047125
	minimum = 0.032 (at node 10)
	maximum = 0.06 (at node 7)
Injected packet length average = 1
Accepted packet length average = 1
Total in-flight flits = 16 (0 measured)
latency change    = 1
throughput change = 1
Class 0:
Packet latency average = 23.1407
	minimum = 7
	maximum = 100
Network latency average = 23.1407
	minimum = 7
	maximum = 100
Slowest packet = 9248
Flit latency average = 23.1407
	minimum = 7
	maximum = 100
Slowest flit = 9248
Fragmentation average = 0
	minimum = 0
	maximum = 0
Injected packet rate average = 0.050375
	minimum = 0.033 (at node 10)
	maximum = 0.061 (at node 14)
Accepted packet rate average = 0.0493125
	minimum = 0.035 (at node 0)
	maximum = 0.061 (at node 4)
Injected flit rate average = 0.050375
	minimum = 0.033 (at node 10)
	maximum = 0.061 (at node 14)
Accepted flit rate average= 0.0493125
	minimum = 0.035 (at node 0)
	maximum = 0.061 (at node 4)
Injected packet length average = 1
Accepted packet length average = 1
Total in-flight flits = 17 (0 measured)
latency change    = 0.0106646
throughput change = 0.0443599
Class 0:
Packet latency average = 22.8696
	minimum = 7
	maximum = 85
Network latency average = 22.8696
	minimum = 7
	maximum = 85
Slowest packet = 10093
Flit latency average = 22.8696
	minimum = 7
	maximum = 85
Slowest flit = 10093
Fragmentation average = 0
	minimum = 0
	maximum = 0
Injected packet rate average = 0.046
	minimum = 0.032 (at node 1)
	maximum = 0.056 (at node 5)
Accepted packet rate average = 0.046
	minimum = 0.032 (at node 15)
	maximum = 0.058 (at node 4)
Injected flit rate average = 0.046
	minimum = 0.032 (at node 1)
	maximum = 0.056 (at node 5)
Accepted flit rate average= 0.046
	minimum = 0.032 (at node 15)
	maximum = 0.058 (at node 4)
Injected packet length average = 1
Accepted packet length average = 1
Total in-flight flits = 17 (0 measured)
latency change    = 0.011855
throughput change = 0.0720109
Warmed up ...Time used is 1500 cycles
Class 0:
Packet latency average = 23.7592
	minimum = 7
	maximum = 107
Network latency average = 23.7592
	minimum = 7
	maximum = 107
Slowest packet = 10514
Flit latency average = 23.7744
	minimum = 7
	maximum = 107
Slowest flit = 10514
Fragmentation average = 0
	minimum = 0
	maximum = 0
Injected packet rate average = 0.05125
	minimum = 0.036 (at node 2)
	maximum = 0.07 (at node 15)
Accepted packet rate average = 0.049875
	minimum = 0.032 (at node 12)
	maximum = 0.068 (at node 2)
Injected flit rate average = 0.05125
	minimum = 0.036 (at node 2)
	maximum = 0.07 (at node 15)
Accepted flit rate average= 0.049875
	minimum = 0.032 (at node 12)
	maximum = 0.068 (at node 2)
Injected packet length average = 1
Accepted packet length average = 1
Total in-flight flits = 28 (28 measured)
latency change    = 0.0374423
throughput change = 0.0776942
Class 0:
Packet latency average = 24.2497
	minimum = 7
	maximum = 107
Network latency average = 24.2497
	minimum = 7
	maximum = 107
Slowest packet = 10514
Flit latency average = 24.2468
	minimum = 7
	maximum = 107
Slowest flit = 10514
Fragmentation average = 0
	minimum = 0
	maximum = 0
Injected packet rate average = 0.0493125
	minimum = 0.041 (at node 3)
	maximum = 0.064 (at node 15)
Accepted packet rate average = 0.049375
	minimum = 0.042 (at node 12)
	maximum = 0.062 (at node 2)
Injected flit rate average = 0.0493125
	minimum = 0.041 (at node 3)
	maximum = 0.064 (at node 15)
Accepted flit rate average= 0.049375
	minimum = 0.042 (at node 12)
	maximum = 0.062 (at node 2)
Injected packet length average = 1
Accepted packet length average = 1
Total in-flight flits = 16 (16 measured)
latency change    = 0.0202277
throughput change = 0.0101266
Class 0:
Packet latency average = 23.9632
	minimum = 7
	maximum = 107
Network latency average = 23.9632
	minimum = 7
	maximum = 107
Slowest packet = 10514
Flit latency average = 23.9654
	minimum = 7
	maximum = 107
Slowest flit = 10514
Fragmentation average = 0
	minimum = 0
	maximum = 0
Injected packet rate average = 0.049375
	minimum = 0.0406667 (at node 3)
	maximum = 0.0593333 (at node 15)
Accepted packet rate average = 0.049375
	minimum = 0.0406667 (at node 7)
	maximum = 0.062 (at node 2)
Injected flit rate average = 0.049375
	minimum = 0.0406667 (at node 3)
	maximum = 0.0593333 (at node 15)
Accepted flit rate average= 0.049375
	minimum = 0.0406667 (at node 7)
	maximum = 0.062 (at node 2)
Injected packet length average = 1
Accepted packet length average = 1
Total in-flight flits = 17 (17 measured)
latency change    = 0.0119555
throughput change = 0
Class 0:
Packet latency average = 24.2267
	minimum = 7
	maximum = 112
Network latency average = 24.2267
	minimum = 7
	maximum = 112
Slowest packet = 11417
Flit latency average = 24.2255
	minimum = 7
	maximum = 112
Slowest flit = 11417
Fragmentation average = 0
	minimum = 0
	maximum = 0
Injected packet rate average = 0.0494062
	minimum = 0.0425 (at node 3)
	maximum = 0.058 (at node 15)
Accepted packet rate average = 0.0494687
	minimum = 0.0395 (at node 4)
	maximum = 0.06 (at node 2)
Injected flit rate average = 0.0494062
	minimum = 0.0425 (at node 3)
	maximum = 0.058 (at node 15)
Accepted flit rate average= 0.0494687
	minimum = 0.0395 (at node 4)
	maximum = 0.06 (at node 2)
Injected packet length average = 1
Accepted packet length average = 1
Total in-flight flits = 15 (15 measured)
latency change    = 0.0108767
throughput change = 0.00189514
Draining all recorded packets ...
Draining remaining packets ...
Time taken is 3588 cycles
Class 0:
Packet latency average = 23.2853
	minimum = 7
	maximum = 75
Network latency average = 23.2853
	minimum = 7
	maximum = 75
Slowest packet = 12132
Flit latency average = 23.2853
	minimum = 7
	maximum = 75
Slowest flit = 12132
Fragmentation average = 0
	minimum = 0
	maximum = 0
Injected packet rate average = 0.050625
	minimum = 0.04 (at node 6)
	maximum = 0.066 (at node 4)
Accepted packet rate average = 0.048625
	minimum = 0.03 (at node 10)
	maximum = 0.07 (at node 15)
Injected flit rate average = 0.050625
	minimum = 0.04 (at node 6)
	maximum = 0.066 (at node 4)
Accepted flit rate average= 0.048625
	minimum = 0.03 (at node 10)
	maximum = 0.07 (at node 15)
Injected packet length average = 1
Accepted packet length average = 1
Total in-flight flits = 16 (0 measured)
latency change    = 1
throughput change = 1
Class 0:
Packet latency average = 22.9039
	minimum = 7
	maximum = 102
Network latency average = 22.9039
	minimum = 7
	maximum = 102
Slowest packet = 12270
Flit latency average = 22.9039
	minimum = 7
	maximum = 102
Slowest flit = 12270
Fragmentation average = 0
	minimum = 0
	maximum = 0
Injected packet rate average = 0.051375
	minimum = 0.043 (at node 13)
	maximum = 0.06 (at node 1)
Accepted packet rate average = 0.0500625
	minimum = 0.037 (at node 1)
	maximum = 0.066 (at node 15)
Injected flit rate average = 0.051375
	minimum = 0.043 (at node 13)
	maximum = 0.06 (at node 1)
Accepted flit rate average= 0.0500625
	minimum = 0.037 (at node 1)
	maximum = 0.066 (at node 15)
Injected packet length average = 1
Accepted packet length average = 1
Total in-flight flits = 21 (0 measured)
latency change    = 0.0166556
throughput change = 0.0287141
Class 0:
Packet latency average = 23.6362
	minimum = 7
	maximum = 76
Network latency average = 23.6362
	minimum = 7
	maximum = 76
Slowest packet = 12858
Flit latency average = 23.6362
	minimum = 7
	maximum = 76
Slowest flit = 12858
Fragmentation average = 0
	minimum = 0
	maximum = 0
Injected packet rate average = 0.052875
	minimum = 0.034 (at node 13)
	maximum = 0.07 (at node 8)
Accepted packet rate average = 0.05325
	minimum = 0.022 (at node 9)
	maximum = 0.076 (at node 13)
Injected flit rate average = 0.052875
	minimum = 0.034 (at node 13)
	maximum = 0.07 (at node 8)
Accepted flit rate average= 0.05325
	minimum = 0.022 (at node 9)
	maximum = 0.076 (at node 13)
Injected packet length average = 1
Accepted packet length average = 1
Total in-flight flits = 18 (0 measured)
latency change    = 0.0309814
throughput change = 0.0598592
Warmed up ...Time used is 1500 cycles
Class 0:
Packet latency average = 24.2612
	minimum = 7
	maximum = 106
Network latency average = 24.2612
	minimum = 7
	maximum = 106
Slowest packet = 13211
Flit latency average = 24.6297
	minimum = 7
	maximum = 106
Slowest flit = 13211
Fragmentation average = 0
	minimum = 0
	maximum = 0
Injected packet rate average = 0.04925
	minimum = 0.04 (at node 1)
	maximum = 0.066 (at node 8)
Accepted packet rate average = 0.049625
	minimum = 0.038 (at node 2)
	maximum = 0.066 (at node 14)
Injected flit rate average = 0.04925
	minimum = 0.04 (at node 1)
	maximum = 0.066 (at node 8)
Accepted flit rate average= 0.049625
	minimum = 0.038 (at node 2)
	maximum = 0.066 (at node 14)
Injected packet length average = 1
Accepted packet length average = 1
Total in-flight flits = 15 (15 measured)
latency change    = 0.0257639
throughput change = 0.0730479
Class 0:
Packet latency average = 23.6196
	minimum = 7
	maximum = 106
Network latency average = 23.6196
	minimum = 7
	maximum = 106
Slowest packet = 13211
Flit latency average = 23.8268
	minimum = 7
	maximum = 106
Slowest flit = 13211
Fragmentation average = 0
	minimum = 0
	maximum = 0
Injected packet rate average = 0.0474375
	minimum = 0.036 (at node 1)
	maximum = 0.068 (at node 8)
Accepted packet rate average = 0.047625
	minimum = 0.036 (at node 2)
	maximum = 0.057 (at node 14)
Injected flit rate average = 0.0474375
	minimum = 0.036 (at node 1)
	maximum = 0.068 (at node 8)
Accepted flit rate average= 0.047625
	minimum = 0.036 (at node 2)
	maximum = 0.057 (at node 14)
Injected packet length average = 1
Accepted packet length average = 1
Total in-flight flits = 15 (15 measured)
latency change    = 0.0271634
throughput change = 0.0419948
Class 0:
Packet latency average = 23.4661
	minimum = 7
	maximum = 106
Network latency average = 23.4661
	minimum = 7
	maximum = 106
Slowest packet = 13211
Flit latency average = 23.6034
	minimum = 7
	maximum = 106
Slowest flit = 13211
Fragmentation average = 0
	minimum = 0
	maximum = 0
Injected packet rate average = 0.049
	minimum = 0.036 (at node 1)
	maximum = 0.0646667 (at node 8)
Accepted packet rate average = 0.04875
	minimum = 0.04 (at node 15)
	maximum = 0.056 (at node 14)
Injected flit rate average = 0.049
	minimum = 0.036 (at node 1)
	maximum = 0.0646667 (at node 8)
Accepted flit rate average= 0.04875
	minimum = 0.04 (at node 15)
	maximum = 0.056 (at node 14)
Injected packet length average = 1
Accepted packet length average = 1
Total in-flight flits = 24 (24 measured)
latency change    = 0.00654039
throughput change = 0.0230769
Class 0:
Packet latency average = 23.3532
	minimum = 7
	maximum = 106
Network latency average = 23.3532
	minimum = 7
	maximum = 106
Slowest packet = 13211
Flit latency average = 23.4543
	minimum = 7
	maximum = 106
Slowest flit = 13211
Fragmentation average = 0
	minimum = 0
	maximum = 0
Injected packet rate average = 0.0505
	minimum = 0.0375 (at node 1)
	maximum = 0.0625 (at node 8)
Accepted packet rate average = 0.0502812
	minimum = 0.0405 (at node 15)
	maximum = 0.057 (at node 3)
Injected flit rate average = 0.0505
	minimum = 0.0375 (at node 1)
	maximum = 0.0625 (at node 8)
Accepted flit rate average= 0.0502812
	minimum = 0.0405 (at node 15)
	maximum = 0.057 (at node 3)
Injected packet length average = 1
Accepted packet length average = 1
Total in-flight flits = 25 (25 measured)
latency change    = 0.00483483
throughput change = 0.0304537
Draining all recorded packets ...
Draining remaining packets ...
Time taken is 3610 cycles
Class 0:
Packet latency average = 24.8062
	minimum = 7
	maximum = 100
Network latency average = 24.8062
	minimum = 7
	maximum = 100
Slowest packet = 14894
Flit latency average = 24.8062
	minimum = 7
	maximum = 100
Slowest flit = 14894
Fragmentation average = 0
	minimum = 0
	maximum = 0
Injected packet rate average = 0.043125
	minimum = 0.028 (at node 4)
	maximum = 0.058 (at node 1)
Accepted packet rate average = 0.040625
	minimum = 0.026 (at node 10)
	maximum = 0.062 (at node 14)
Injected flit rate average = 0.043125
	minimum = 0.028 (at node 4)
	maximum = 0.058 (at node 1)
Accepted flit rate average= 0.040625
	minimum = 0.026 (at node 10)
	maximum = 0.062 (at node 14)
Injected packet length average = 1
Accepted packet length average = 1
Total in-flight flits = 20 (0 measured)
latency change    = 1
throughput change = 1
Class 0:
Packet latency average = 24.8331
	minimum = 7
	maximum = 112
Network latency average = 24.8331
	minimum = 7
	maximum = 112
Slowest packet = 15300
Flit latency average = 24.8331
	minimum = 7
	maximum = 112
Slowest flit = 15300
Fragmentation average = 0
	minimum = 0
	maximum = 0
Injected packet rate average = 0.04675
	minimum = 0.037 (at node 4)
	maximum = 0.06 (at node 12)
Accepted packet rate average = 0.0456875
	minimum = 0.038 (at node 9)
	maximum = 0.056 (at node 14)
Injected flit rate average = 0.04675
	minimum = 0.037 (at node 4)
	maximum = 0.06 (at node 12)
Accepted flit rate average= 0.0456875
	minimum = 0.038 (at node 9)
	maximum = 0.056 (at node 14)
Injected packet length average = 1
Accepted packet length average = 1
Total in-flight flits = 17 (0 measured)
latency change    = 0.0010853
throughput change = 0.110807
Class 0:
Packet latency average = 24.6485
	minimum = 7
	maximum = 92
Network latency average = 24.6485
	minimum = 7
	maximum = 92
Slowest packet = 15475
Flit latency average = 24.6485
	minimum = 7
	maximum = 92
Slowest flit = 15475
Fragmentation average = 0
	minimum = 0
	maximum = 0
Injected packet rate average = 0.04625
	minimum = 0.034 (at node 11)
	maximum = 0.06 (at node 10)
Accepted packet rate average = 0.045875
	minimum = 0.034 (at node 2)
	maximum = 0.058 (at node 13)
Injected flit rate average = 0.04625
	minimum = 0.034 (at node 11)
	maximum = 0.06 (at node 10)
Accepted flit rate average= 0.045875
	minimum = 0.034 (at node 2)
	maximum = 0.058 (at node 13)
Injected packet length average = 1
Accepted packet length average = 1
Total in-flight flits = 20 (0 measured)
latency change    = 0.00748946
throughput change = 0.00408719
Warmed up ...Time used is 1500 cycles
Class 0:
Packet latency average = 24.8093
	minimum = 7
	maximum = 87
Network latency average = 24.8093
	minimum = 7
	maximum = 87
Slowest packet = 16180
Flit latency average = 24.7273
	minimum = 7
	maximum = 87
Slowest flit = 16180
Fragmentation average = 0
	minimum = 0
	maximum = 0
Injected packet rate average = 0.05375
	minimum = 0.036 (at node 6)
	maximum = 0.072 (at node 4)
Accepted packet rate average = 0.053625
	minimum = 0.042 (at node 1)
	maximum = 0.072 (at node 5)
Injected flit rate average = 0.05375
	minimum = 0.036 (at node 6)
	maximum = 0.072 (at node 4)
Accepted flit rate average= 0.053625
	minimum = 0.042 (at node 1)
	maximum = 0.072 (at node 5)
Injected packet length average = 1
Accepted packet length average = 1
Total in-flight flits = 21 (21 measured)
latency change    = 0.00648102
throughput change = 0.144522
Class 0:
Packet latency average = 24.0475
	minimum = 7
	maximum = 87
Network latency average = 24.0475
	minimum = 7
	maximum = 87
Slowest packet = 16180
Flit latency average = 24.0232
	minimum = 7
	maximum = 87
Slowest flit = 16180
Fragmentation average = 0
	minimum = 0
	maximum = 0
Injected packet rate average = 0.051125
	minimum = 0.043 (at node 7)
	maximum = 0.063 (at node 4)
Accepted packet rate average = 0.05125
	minimum = 0.041 (at node 9)
	maximum = 0.066 (at node 5)
Injected flit rate average = 0.051125
	minimum = 0.043 (at node 7)
	maximum = 0.063 (at node 4)
Accepted flit rate average= 0.05125
	minimum = 0.041 (at node 9)
	maximum = 0.066 (at node 5)
Injected packet length average = 1
Accepted packet length average = 1
Total in-flight flits = 18 (18 measured)
latency change    = 0.0316786
throughput change = 0.0463415
Class 0:
Packet latency average = 24.1539
	minimum = 7
	maximum = 96
Network latency average = 24.1539
	minimum = 7
	maximum = 96
Slowest packet = 16939
Flit latency average = 24.1355
	minimum = 7
	maximum = 96
Slowest flit = 16939
Fragmentation average = 0
	minimum = 0
	maximum = 0
Injected packet rate average = 0.0500417
	minimum = 0.042 (at node 9)
	maximum = 0.0626667 (at node 4)
Accepted packet rate average = 0.0498333
	minimum = 0.038 (at node 9)
	maximum = 0.062 (at node 7)
Injected flit rate average = 0.0500417
	minimum = 0.042 (at node 9)
	maximum = 0.0626667 (at node 4)
Accepted flit rate average= 0.0498333
	minimum = 0.038 (at node 9)
	maximum = 0.062 (at node 7)
Injected packet length average = 1
Accepted packet length average = 1
Total in-flight flits = 25 (25 measured)
latency change    = 0.00440556
throughput change = 0.0284281
Class 0:
Packet latency average = 24.0831
	minimum = 7
	maximum = 105
Network latency average = 24.0831
	minimum = 7
	maximum = 105
Slowest packet = 17025
Flit latency average = 24.0701
	minimum = 7
	maximum = 105
Slowest flit = 17025
Fragmentation average = 0
	minimum = 0
	maximum = 0
Injected packet rate average = 0.0500312
	minimum = 0.041 (at node 9)
	maximum = 0.061 (at node 4)
Accepted packet rate average = 0.0499062
	minimum = 0.04 (at node 12)
	maximum = 0.059 (at node 5)
Injected flit rate average = 0.0500312
	minimum = 0.041 (at node 9)
	maximum = 0.061 (at node 4)
Accepted flit rate average= 0.0499062
	minimum = 0.04 (at node 12)
	maximum = 0.059 (at node 5)
Injected packet length average = 1
Accepted packet length average = 1
Total in-flight flits = 24 (24 measured)
latency change    = 0.00294159
throughput change = 0.00146107
Draining all recorded packets ...
Draining remaining packets ...
Time taken is 3587 cycles
Class 0:
Packet latency average = 24.2963
	minimum = 7
	maximum = 73
Network latency average = 24.2963
	minimum = 7
	maximum = 73
Slowest packet = 17787
Flit latency average = 24.2963
	minimum = 7
	maximum = 73
Slowest flit = 17787
Fragmentation average = 0
	minimum = 0
	maximum = 0
Injected packet rate average = 0.050375
	minimum = 0.042 (at node 3)
	maximum = 0.058 (at node 1)
Accepted packet rate average = 0.04725
	minimum = 0.038 (at node 2)
	maximum = 0.062 (at node 11)
Injected flit rate average = 0.050375
	minimum = 0.042 (at node 3)
	maximum = 0.058 (at node 1)
Accepted flit rate average= 0.04725
	minimum = 0.038 (at node 2)
	maximum = 0.062 (at node 11)
Injected packet length average = 1
Accepted packet length average = 1
Total in-flight flits = 25 (0 measured)
latency change    = 1
throughput change = 1
Class 0:
Packet latency average = 24.0231
	minimum = 7
	maximum = 106
Network latency average = 24.0231
	minimum = 7
	maximum = 106
Slowest packet = 18037
Flit latency average = 24.0231
	minimum = 7
	maximum = 106
Slowest flit = 18037
Fragmentation average = 0
	minimum = 0
	maximum = 0
Injected packet rate average = 0.0494375
	minimum = 0.04 (at node 2)
	maximum = 0.063 (at node 13)
Accepted packet rate average = 0.0486875
	minimum = 0.036 (at node 7)
	maximum = 0.059 (at node 1)
Injected flit rate average = 0.0494375
	minimum = 0.04 (at node 2)
	maximum = 0.063 (at node 13)
Accepted flit rate average= 0.0486875
	minimum = 0.036 (at node 7)
	maximum = 0.059 (at node 1)
Injected packet length average = 1
Accepted packet length average = 1
Total in-flight flits = 12 (0 measured)
latency change    = 0.011372
throughput change = 0.029525
Class 0:
Packet latency average = 24.2581
	minimum = 7
	maximum = 111
Network latency average = 24.2581
	minimum = 7
	maximum = 111
Slowest packet = 18371
Flit latency average = 24.2581
	minimum = 7
	maximum = 111
Slowest flit = 18371
Fragmentation average = 0
	minimum = 0
	maximum = 0
Injected packet rate average = 0.050625
	minimum = 0.032 (at node 1)
	maximum = 0.062 (at node 6)
Accepted packet rate average = 0.050375
	minimum = 0.028 (at node 14)
	maximum = 0.078 (at node 7)
Injected flit rate average = 0.050625
	minimum = 0.032 (at node 1)
	maximum = 0.062 (at node 6)
Accepted flit rate average= 0.050375
	minimum = 0.028 (at node 14)
	maximum = 0.078 (at node 7)
Injected packet length average = 1
Accepted packet length average = 1
Total in-flight flits = 14 (0 measured)
latency change    = 0.00968577
throughput change = 0.0334988
Warmed up ...Time used is 1500 cycles
Class 0:
Packet latency average = 24.0413
	minimum = 7
	maximum = 121
Network latency average = 24.0413
	minimum = 7
	maximum = 121
Slowest packet = 18716
Flit latency average = 24.9152
	minimum = 7
	maximum = 121
Slowest flit = 18716
Fragmentation average = 0
	minimum = 0
	maximum = 0
Injected packet rate average = 0.05075
	minimum = 0.032 (at node 2)
	maximum = 0.06 (at node 1)
Accepted packet rate average = 0.050125
	minimum = 0.032 (at node 10)
	maximum = 0.064 (at node 0)
Injected flit rate average = 0.05075
	minimum = 0.032 (at node 2)
	maximum = 0.06 (at node 1)
Accepted flit rate average= 0.050125
	minimum = 0.032 (at node 10)
	maximum = 0.064 (at node 0)
Injected packet length average = 1
Accepted packet length average = 1
Total in-flight flits = 19 (19 measured)
latency change    = 0.00901451
throughput change = 0.00498753
Class 0:
Packet latency average = 24.2034
	minimum = 7
	maximum = 121
Network latency average = 24.2034
	minimum = 7
	maximum = 121
Slowest packet = 18716
Flit latency average = 24.6463
	minimum = 7
	maximum = 121
Slowest flit = 18716
Fragmentation average = 0
	minimum = 0
	maximum = 0
Injected packet rate average = 0.0493125
	minimum = 0.038 (at node 2)
	maximum = 0.059 (at node 6)
Accepted packet rate average = 0.049125
	minimum = 0.032 (at node 2)
	maximum = 0.061 (at node 6)
Injected flit rate average = 0.0493125
	minimum = 0.038 (at node 2)
	maximum = 0.059 (at node 6)
Accepted flit rate average= 0.049125
	minimum = 0.032 (at node 2)
	maximum = 0.061 (at node 6)
Injected packet length average = 1
Accepted packet length average = 1
Total in-flight flits = 17 (17 measured)
latency change    = 0.00669428
throughput change = 0.0203562
Class 0:
Packet latency average = 24.4236
	minimum = 7
	maximum = 121
Network latency average = 24.4236
	minimum = 7
	maximum = 121
Slowest packet = 18716
Flit latency average = 24.7148
	minimum = 7
	maximum = 121
Slowest flit = 18716
Fragmentation average = 0
	minimum = 0
	maximum = 0
Injected packet rate average = 0.0494167
	minimum = 0.0413333 (at node 3)
	maximum = 0.058 (at node 12)
Accepted packet rate average = 0.049375
	minimum = 0.034 (at node 2)
	maximum = 0.0633333 (at node 7)
Injected flit rate average = 0.0494167
	minimum = 0.0413333 (at node 3)
	maximum = 0.058 (at node 12)
Accepted flit rate average= 0.049375
	minimum = 0.034 (at node 2)
	maximum = 0.0633333 (at node 7)
Injected packet length average = 1
Accepted packet length average = 1
Total in-flight flits = 15 (15 measured)
latency change    = 0.00901595
throughput change = 0.00506329
Draining all recorded packets ...
Draining remaining packets ...
Time taken is 3075 cycles
Class 0:
Packet latency average = 22.5331
	minimum = 7
	maximum = 78
Network latency average = 22.5331
	minimum = 7
	maximum = 78
Slowest packet = 20213
Flit latency average = 22.5331
	minimum = 7
	maximum = 78
Slowest flit = 20213
Fragmentation average = 0
	minimum = 0
	maximum = 0
Injected packet rate average = 0.04825
	minimum = 0.022 (at node 5)
	maximum = 0.068 (at node 7)
Accepted packet rate average = 0.04525
	minimum = 0.034 (at node 6)
	maximum = 0.06 (at node 14)
Injected flit rate average = 0.04825
	minimum = 0.022 (at node 5)
	maximum = 0.068 (at node 7)
Accepted flit rate average= 0.04525
	minimum = 0.034 (at node 6)
	maximum = 0.06 (at node 14)
Injected packet length average = 1
Accepted packet length average = 1
Total in-flight flits = 24 (0 measured)
latency change    = 1
throughput change = 1
Class 0:
Packet latency average = 23.3568
	minimum = 7
	maximum = 87
Network latency average = 23.3568
	minimum = 7
	maximum = 87
Slowest packet = 20501
Flit latency average = 23.3568
	minimum = 7
	maximum = 87
Slowest flit = 20501
Fragmentation average = 0
	minimum = 0
	maximum = 0
Injected packet rate average = 0.0483125
	minimum = 0.032 (at node 5)
	maximum = 0.06 (at node 3)
Accepted packet rate average = 0.047125
	minimum = 0.039 (at node 15)
	maximum = 0.062 (at node 14)
Injected flit rate average = 0.0483125
	minimum = 0.032 (at node 5)
	maximum = 0.06 (at node 3)
Accepted flit rate average= 0.047125
	minimum = 0.039 (at node 15)
	maximum = 0.062 (at node 14)
Injected packet length average = 1
Accepted packet length average = 1
Total in-flight flits = 19 (0 measured)
latency change    = 0.0352624
throughput change = 0.0397878
Class 0:
Packet latency average = 24.3711
	minimum = 7
	maximum = 87
Network latency average = 24.3711
	minimum = 7
	maximum = 87
Slowest packet = 20944
Flit latency average = 24.3711
	minimum = 7
	maximum = 87
Slowest flit = 20944
Fragmentation average = 0
	minimum = 0
	maximum = 0
Injected packet rate average = 0.04775
	minimum = 0.028 (at node 1)
	maximum = 0.068 (at node 3)
Accepted packet rate average = 0.0475
	minimum = 0.026 (at node 2)
	maximum = 0.064 (at node 13)
Injected flit rate average = 0.04775
	minimum = 0.028 (at node 1)
	maximum = 0.068 (at node 3)
Accepted flit rate average= 0.0475
	minimum = 0.026 (at node 2)
	maximum = 0.064 (at node 13)
Injected packet length average = 1
Accepted packet length average = 1
Total in-flight flits = 21 (0 measured)
latency change    = 0.0416186
throughput change = 0.00789474
Warmed up ...Time used is 1500 cycles
Class 0:
Packet latency average = 22.4415
	minimum = 7
	maximum = 95
Network latency average = 22.4415
	minimum = 7
	maximum = 95
Slowest packet = 21081
Flit latency average = 22.9647
	minimum = 7
	maximum = 95
Slowest flit = 21081
Fragmentation average = 0
	minimum = 0
	maximum = 0
Injected packet rate average = 0.04925
	minimum = 0.03 (at node 12)
	maximum = 0.064 (at node 15)
Accepted packet rate average = 0.049625
	minimum = 0.034 (at node 2)
	maximum = 0.062 (at node 0)
Injected flit rate average = 0.04925
	minimum = 0.03 (at node 12)
	maximum = 0.064 (at node 15)
Accepted flit rate average= 0.049625
	minimum = 0.034 (at node 2)
	maximum = 0.062 (at node 0)
Injected packet length average = 1
Accepted packet length average = 1
Total in-flight flits = 18 (18 measured)
latency change    = 0.085982
throughput change = 0.0428212
Class 0:
Packet latency average = 24.4183
	minimum = 7
	maximum = 106
Network latency average = 24.4183
	minimum = 7
	maximum = 106
Slowest packet = 21496
Flit latency average = 24.6159
	minimum = 7
	maximum = 106
Slowest flit = 21496
Fragmentation average = 0
	minimum = 0
	maximum = 0
Injected packet rate average = 0.0523125
	minimum = 0.044 (at node 1)
	maximum = 0.058 (at node 4)
Accepted packet rate average = 0.0525625
	minimum = 0.04 (at node 7)
	maximum = 0.062 (at node 0)
Injected flit rate average = 0.0523125
	minimum = 0.044 (at node 1)
	maximum = 0.058 (at node 4)
Accepted flit rate average= 0.0525625
	minimum = 0.04 (at node 7)
	maximum = 0.062 (at node 0)
Injected packet length average = 1
Accepted packet length average = 1
Total in-flight flits = 17 (17 measured)
latency change    = 0.0809558
throughput change = 0.0558859
Class 0:
Packet latency average = 24.2198
	minimum = 7
	maximum = 106
Network latency average = 24.2198
	minimum = 7
	maximum = 106
Slowest packet = 21496
Flit latency average = 24.3566
	minimum = 7
	maximum = 106
Slowest flit = 21496
Fragmentation average = 0
	minimum = 0
	maximum = 0
Injected packet rate average = 0.051625
	minimum = 0.0426667 (at node 1)
	maximum = 0.0653333 (at node 14)
Accepted packet rate average = 0.051875
	minimum = 0.0413333 (at node 7)
	maximum = 0.0633333 (at node 15)
Injected flit rate average = 0.051625
	minimum = 0.0426667 (at node 1)
	maximum = 0.0653333 (at node 14)
Accepted flit rate average= 0.051875
	minimum = 0.0413333 (at node 7)
	maximum = 0.0633333 (at node 15)
Injected packet length average = 1
Accepted packet length average = 1
Total in-flight flits = 15 (15 measured)
latency change    = 0.00819667
throughput change = 0.013253
Class 0:
Packet latency average = 24.3111
	minimum = 7
	maximum = 106
Network latency average = 24.3111
	minimum = 7
	maximum = 106
Slowest packet = 21496
Flit latency average = 24.4128
	minimum = 7
	maximum = 106
Slowest flit = 21496
Fragmentation average = 0
	minimum = 0
	maximum = 0
Injected packet rate average = 0.05175
	minimum = 0.042 (at node 9)
	maximum = 0.0645 (at node 14)
Accepted packet rate average = 0.0517813
	minimum = 0.043 (at node 7)
	maximum = 0.0635 (at node 15)
Injected flit rate average = 0.05175
	minimum = 0.042 (at node 9)
	maximum = 0.0645 (at node 14)
Accepted flit rate average= 0.0517813
	minimum = 0.043 (at node 7)
	maximum = 0.0635 (at node 15)
Injected packet length average = 1
Accepted packet length average = 1
Total in-flight flits = 20 (20 measured)
latency change    = 0.00375768
throughput change = 0.0018105
Class 0:
Packet latency average = 24.3969
	minimum = 7
	maximum = 116
Network latency average = 24.3969
	minimum = 7
	maximum = 116
Slowest packet = 22897
Flit latency average = 24.4764
	minimum = 7
	maximum = 116
Slowest flit = 22897
Fragmentation average = 0
	minimum = 0
	maximum = 0
Injected packet rate average = 0.0523
	minimum = 0.0412 (at node 9)
	maximum = 0.0648 (at node 14)
Accepted packet rate average = 0.052425
	minimum = 0.046 (at node 9)
	maximum = 0.0608 (at node 15)
Injected flit rate average = 0.0523
	minimum = 0.0412 (at node 9)
	maximum = 0.0648 (at node 14)
Accepted flit rate average= 0.052425
	minimum = 0.046 (at node 9)
	maximum = 0.0608 (at node 15)
Injected packet length average = 1
Accepted packet length average = 1
Total in-flight flits = 16 (16 measured)
latency change    = 0.00351653
throughput change = 0.0122794
Draining all recorded packets ...
Draining remaining packets ...
Time taken is 4071 cycles
Class 0:
Packet latency average = 22.8668
	minimum = 7
	maximum = 89
Network latency average = 22.8668
	minimum = 7
	maximum = 89
Slowest packet = 23292
Flit latency average = 22.8668
	minimum = 7
	maximum = 89
Slowest flit = 23292
Fragmentation average = 0
	minimum = 0
	maximum = 0
Injected packet rate average = 0.050375
	minimum = 0.036 (at node 3)
	maximum = 0.07 (at node 11)
Accepted packet rate average = 0.047875
	minimum = 0.036 (at node 3)
	maximum = 0.06 (at node 4)
Injected flit rate average = 0.050375
	minimum = 0.036 (at node 3)
	maximum = 0.07 (at node 11)
Accepted flit rate average= 0.047875
	minimum = 0.036 (at node 3)
	maximum = 0.06 (at node 4)
Injected packet length average = 1
Accepted packet length average = 1
Total in-flight flits = 20 (0 measured)
latency change    = 1
throughput change = 1
Class 0:
Packet latency average = 23.0731
	minimum = 7
	maximum = 92
Network latency average = 23.0731
	minimum = 7
	maximum = 92
Slowest packet = 23916
Flit latency average = 23.0731
	minimum = 7
	maximum = 92
Slowest flit = 23916
Fragmentation average = 0
	minimum = 0
	maximum = 0
Injected packet rate average = 0.0505
	minimum = 0.034 (at node 13)
	maximum = 0.061 (at node 1)
Accepted packet rate average = 0.0495625
	minimum = 0.038 (at node 3)
	maximum = 0.072 (at node 9)
Injected flit rate average = 0.0505
	minimum = 0.034 (at node 13)
	maximum = 0.061 (at node 1)
Accepted flit rate average= 0.0495625
	minimum = 0.038 (at node 3)
	maximum = 0.072 (at node 9)
Injected packet length average = 1
Accepted packet length average = 1
Total in-flight flits = 15 (0 measured)
latency change    = 0.0089411
throughput change = 0.0340479
Class 0:
Packet latency average = 22.8164
	minimum = 7
	maximum = 106
Network latency average = 22.8164
	minimum = 7
	maximum = 106
Slowest packet = 24244
Flit latency average = 22.8164
	minimum = 7
	maximum = 106
Slowest flit = 24244
Fragmentation average = 0
	minimum = 0
	maximum = 0
Injected packet rate average = 0.051625
	minimum = 0.03 (at node 5)
	maximum = 0.066 (at node 14)
Accepted packet rate average = 0.05175
	minimum = 0.024 (at node 3)
	maximum = 0.072 (at node 5)
Injected flit rate average = 0.051625
	minimum = 0.03 (at node 5)
	maximum = 0.066 (at node 14)
Accepted flit rate average= 0.05175
	minimum = 0.024 (at node 3)
	maximum = 0.072 (at node 5)
Injected packet length average = 1
Accepted packet length average = 1
Total in-flight flits = 14 (0 measured)
latency change    = 0.0112513
throughput change = 0.0422705
Warmed up ...Time used is 1500 cycles
Class 0:
Packet latency average = 24.7109
	minimum = 7
	maximum = 110
Network latency average = 24.7109
	minimum = 7
	maximum = 110
Slowest packet = 24496
Flit latency average = 24.9898
	minimum = 7
	maximum = 110
Slowest flit = 24496
Fragmentation average = 0
	minimum = 0
	maximum = 0
Injected packet rate average = 0.04925
	minimum = 0.038 (at node 5)
	maximum = 0.072 (at node 15)
Accepted packet rate average = 0.048875
	minimum = 0.036 (at node 14)
	maximum = 0.07 (at node 6)
Injected flit rate average = 0.04925
	minimum = 0.038 (at node 5)
	maximum = 0.072 (at node 15)
Accepted flit rate average= 0.048875
	minimum = 0.036 (at node 14)
	maximum = 0.07 (at node 6)
Injected packet length average = 1
Accepted packet length average = 1
Total in-flight flits = 17 (17 measured)
latency change    = 0.0766646
throughput change = 0.0588235
Class 0:
Packet latency average = 23.9117
	minimum = 7
	maximum = 110
Network latency average = 23.9117
	minimum = 7
	maximum = 110
Slowest packet = 24496
Flit latency average = 24.0673
	minimum = 7
	maximum = 110
Slowest flit = 24496
Fragmentation average = 0
	minimum = 0
	maximum = 0
Injected packet rate average = 0.0493125
	minimum = 0.041 (at node 10)
	maximum = 0.067 (at node 4)
Accepted packet rate average = 0.0483125
	minimum = 0.035 (at node 14)
	maximum = 0.057 (at node 6)
Injected flit rate average = 0.0493125
	minimum = 0.041 (at node 10)
	maximum = 0.067 (at node 4)
Accepted flit rate average= 0.0483125
	minimum = 0.035 (at node 14)
	maximum = 0.057 (at node 6)
Injected packet length average = 1
Accepted packet length average = 1
Total in-flight flits = 30 (30 measured)
latency change    = 0.0334208
throughput change = 0.0116429
Class 0:
Packet latency average = 23.6016
	minimum = 7
	maximum = 110
Network latency average = 23.6016
	minimum = 7
	maximum = 110
Slowest packet = 24496
Flit latency average = 23.7098
	minimum = 7
	maximum = 110
Slowest flit = 24496
Fragmentation average = 0
	minimum = 0
	maximum = 0
Injected packet rate average = 0.048125
	minimum = 0.0386667 (at node 7)
	maximum = 0.0653333 (at node 4)
Accepted packet rate average = 0.0479583
	minimum = 0.038 (at node 0)
	maximum = 0.0566667 (at node 9)
Injected flit rate average = 0.048125
	minimum = 0.0386667 (at node 7)
	maximum = 0.0653333 (at node 4)
Accepted flit rate average= 0.0479583
	minimum = 0.038 (at node 0)
	maximum = 0.0566667 (at node 9)
Injected packet length average = 1
Accepted packet length average = 1
Total in-flight flits = 18 (18 measured)
latency change    = 0.0131408
throughput change = 0.00738488
Class 0:
Packet latency average = 23.5315
	minimum = 7
	maximum = 110
Network latency average = 23.5315
	minimum = 7
	maximum = 110
Slowest packet = 24496
Flit latency average = 23.6133
	minimum = 7
	maximum = 110
Slowest flit = 24496
Fragmentation average = 0
	minimum = 0
	maximum = 0
Injected packet rate average = 0.0480937
	minimum = 0.037 (at node 7)
	maximum = 0.0585 (at node 4)
Accepted packet rate average = 0.048
	minimum = 0.0355 (at node 0)
	maximum = 0.056 (at node 9)
Injected flit rate average = 0.0480937
	minimum = 0.037 (at node 7)
	maximum = 0.0585 (at node 4)
Accepted flit rate average= 0.048
	minimum = 0.0355 (at node 0)
	maximum = 0.056 (at node 9)
Injected packet length average = 1
Accepted packet length average = 1
Total in-flight flits = 17 (17 measured)
latency change    = 0.00297667
throughput change = 0.000868056
Draining all recorded packets ...
Draining remaining packets ...
Time taken is 3562 cycles
Class 0:
Packet latency average = 22.715
	minimum = 7
	maximum = 72
Network latency average = 22.715
	minimum = 7
	maximum = 72
Slowest packet = 26156
Flit latency average = 22.715
	minimum = 7
	maximum = 72
Slowest flit = 26156
Fragmentation average = 0
	minimum = 0
	maximum = 0
Injected packet rate average = 0.05225
	minimum = 0.032 (at node 8)
	maximum = 0.078 (at node 14)
Accepted packet rate average = 0.05
	minimum = 0.036 (at node 7)
	maximum = 0.064 (at node 0)
Injected flit rate average = 0.05225
	minimum = 0.032 (at node 8)
	maximum = 0.078 (at node 14)
Accepted flit rate average= 0.05
	minimum = 0.036 (at node 7)
	maximum = 0.064 (at node 0)
Injected packet length average = 1
Accepted packet length average = 1
Total in-flight flits = 18 (0 measured)
latency change    = 1
throughput change = 1
Class 0:
Packet latency average = 22.7585
	minimum = 7
	maximum = 72
Network latency average = 22.7585
	minimum = 7
	maximum = 72
Slowest packet = 26156
Flit latency average = 22.7585
	minimum = 7
	maximum = 72
Slowest flit = 26156
Fragmentation average = 0
	minimum = 0
	maximum = 0
Injected packet rate average = 0.0509375
	minimum = 0.036 (at node 8)
	maximum = 0.066 (at node 14)
Accepted packet rate average = 0.0496875
	minimum = 0.039 (at node 3)
	maximum = 0.062 (at node 0)
Injected flit rate average = 0.0509375
	minimum = 0.036 (at node 8)
	maximum = 0.066 (at node 14)
Accepted flit rate average= 0.0496875
	minimum = 0.039 (at node 3)
	maximum = 0.062 (at node 0)
Injected packet length average = 1
Accepted packet length average = 1
Total in-flight flits = 20 (0 measured)
latency change    = 0.00191096
throughput change = 0.00628931
Class 0:
Packet latency average = 23.8134
	minimum = 7
	maximum = 82
Network latency average = 23.8134
	minimum = 7
	maximum = 82
Slowest packet = 26803
Flit latency average = 23.8134
	minimum = 7
	maximum = 82
Slowest flit = 26803
Fragmentation average = 0
	minimum = 0
	maximum = 0
Injected packet rate average = 0.0505
	minimum = 0.036 (at node 1)
	maximum = 0.066 (at node 0)
Accepted packet rate average = 0.05025
	minimum = 0.038 (at node 10)
	maximum = 0.06 (at node 15)
Injected flit rate average = 0.0505
	minimum = 0.036 (at node 1)
	maximum = 0.066 (at node 0)
Accepted flit rate average= 0.05025
	minimum = 0.038 (at node 10)
	maximum = 0.06 (at node 15)
Injected packet length average = 1
Accepted packet length average = 1
Total in-flight flits = 22 (0 measured)
latency change    = 0.0443003
throughput change = 0.011194
Warmed up ...Time used is 1500 cycles
Class 0:
Packet latency average = 23.5265
	minimum = 7
	maximum = 99
Network latency average = 23.5265
	minimum = 7
	maximum = 99
Slowest packet = 27330
Flit latency average = 23.8066
	minimum = 7
	maximum = 99
Slowest flit = 27330
Fragmentation average = 0
	minimum = 0
	maximum = 0
Injected packet rate average = 0.044375
	minimum = 0.02 (at node 6)
	maximum = 0.062 (at node 14)
Accepted packet rate average = 0.04525
	minimum = 0.028 (at node 8)
	maximum = 0.054 (at node 4)
Injected flit rate average = 0.044375
	minimum = 0.02 (at node 6)
	maximum = 0.062 (at node 14)
Accepted flit rate average= 0.04525
	minimum = 0.028 (at node 8)
	maximum = 0.054 (at node 4)
Injected packet length average = 1
Accepted packet length average = 1
Total in-flight flits = 15 (15 measured)
latency change    = 0.0121974
throughput change = 0.110497
Class 0:
Packet latency average = 23.9908
	minimum = 7
	maximum = 99
Network latency average = 23.9908
	minimum = 7
	maximum = 99
Slowest packet = 27330
Flit latency average = 24.1076
	minimum = 7
	maximum = 99
Slowest flit = 27330
Fragmentation average = 0
	minimum = 0
	maximum = 0
Injected packet rate average = 0.04825
	minimum = 0.039 (at node 5)
	maximum = 0.066 (at node 14)
Accepted packet rate average = 0.0488125
	minimum = 0.032 (at node 8)
	maximum = 0.063 (at node 0)
Injected flit rate average = 0.04825
	minimum = 0.039 (at node 5)
	maximum = 0.066 (at node 14)
Accepted flit rate average= 0.0488125
	minimum = 0.032 (at node 8)
	maximum = 0.063 (at node 0)
Injected packet length average = 1
Accepted packet length average = 1
Total in-flight flits = 13 (13 measured)
latency change    = 0.0193536
throughput change = 0.0729834
Class 0:
Packet latency average = 23.8901
	minimum = 7
	maximum = 99
Network latency average = 23.8858
	minimum = 7
	maximum = 99
Slowest packet = 27330
Flit latency average = 23.9652
	minimum = 7
	maximum = 99
Slowest flit = 27330
Fragmentation average = 0
	minimum = 0
	maximum = 0
Injected packet rate average = 0.04925
	minimum = 0.0433333 (at node 2)
	maximum = 0.0633333 (at node 9)
Accepted packet rate average = 0.0490833
	minimum = 0.034 (at node 8)
	maximum = 0.06 (at node 15)
Injected flit rate average = 0.04925
	minimum = 0.0433333 (at node 2)
	maximum = 0.0633333 (at node 9)
Accepted flit rate average= 0.0490833
	minimum = 0.034 (at node 8)
	maximum = 0.06 (at node 15)
Injected packet length average = 1
Accepted packet length average = 1
Total in-flight flits = 26 (26 measured)
latency change    = 0.00421257
throughput change = 0.00551783
Class 0:
Packet latency average = 23.9504
	minimum = 7
	maximum = 99
Network latency average = 23.9472
	minimum = 7
	maximum = 99
Slowest packet = 27330
Flit latency average = 24.0057
	minimum = 7
	maximum = 99
Slowest flit = 27330
Fragmentation average = 0
	minimum = 0
	maximum = 0
Injected packet rate average = 0.0492812
	minimum = 0.044 (at node 13)
	maximum = 0.059 (at node 9)
Accepted packet rate average = 0.0492187
	minimum = 0.038 (at node 2)
	maximum = 0.0615 (at node 15)
Injected flit rate average = 0.0492812
	minimum = 0.044 (at node 13)
	maximum = 0.059 (at node 9)
Accepted flit rate average= 0.0492187
	minimum = 0.038 (at node 2)
	maximum = 0.0615 (at node 15)
Injected packet length average = 1
Accepted packet length average = 1
Total in-flight flits = 24 (24 measured)
latency change    = 0.00251687
throughput change = 0.00275132
Class 0:
Packet latency average = 23.8711
	minimum = 7
	maximum = 99
Network latency average = 23.8686
	minimum = 7
	maximum = 99
Slowest packet = 27330
Flit latency average = 23.9159
	minimum = 7
	maximum = 99
Slowest flit = 27330
Fragmentation average = 0
	minimum = 0
	maximum = 0
Injected packet rate average = 0.049375
	minimum = 0.0452 (at node 11)
	maximum = 0.0588 (at node 9)
Accepted packet rate average = 0.049625
	minimum = 0.0404 (at node 2)
	maximum = 0.0584 (at node 0)
Injected flit rate average = 0.049375
	minimum = 0.0452 (at node 11)
	maximum = 0.0588 (at node 9)
Accepted flit rate average= 0.049625
	minimum = 0.0404 (at node 2)
	maximum = 0.0584 (at node 0)
Injected packet length average = 1
Accepted packet length average = 1
Total in-flight flits = 12 (12 measured)
latency change    = 0.00332213
throughput change = 0.0081864
Draining all recorded packets ...
Draining remaining packets ...
Time taken is 4109 cycles
Class 0:
Packet latency average = 22.2549
	minimum = 7
	maximum = 77
Network latency average = 22.2549
	minimum = 7
	maximum = 77
Slowest packet = 29465
Flit latency average = 22.2549
	minimum = 7
	maximum = 77
Slowest flit = 29465
Fragmentation average = 0
	minimum = 0
	maximum = 0
Injected packet rate average = 0.0465
	minimum = 0.026 (at node 12)
	maximum = 0.064 (at node 5)
Accepted packet rate average = 0.044625
	minimum = 0.03 (at node 15)
	maximum = 0.068 (at node 4)
Injected flit rate average = 0.0465
	minimum = 0.026 (at node 12)
	maximum = 0.064 (at node 5)
Accepted flit rate average= 0.044625
	minimum = 0.03 (at node 15)
	maximum = 0.068 (at node 4)
Injected packet length average = 1
Accepted packet length average = 1
Total in-flight flits = 15 (0 measured)
latency change    = 1
throughput change = 1
Class 0:
Packet latency average = 23.9492
	minimum = 7
	maximum = 95
Network latency average = 23.9492
	minimum = 7
	maximum = 95
Slowest packet = 29772
Flit latency average = 23.9492
	minimum = 7
	maximum = 95
Slowest flit = 29772
Fragmentation average = 0
	minimum = 0
	maximum = 0
Injected packet rate average = 0.0483125
	minimum = 0.035 (at node 2)
	maximum = 0.062 (at node 14)
Accepted packet rate average = 0.04675
	minimum = 0.038 (at node 5)
	maximum = 0.059 (at node 7)
Injected flit rate average = 0.0483125
	minimum = 0.035 (at node 2)
	maximum = 0.062 (at node 14)
Accepted flit rate average= 0.04675
	minimum = 0.038 (at node 5)
	maximum = 0.059 (at node 7)
Injected packet length average = 1
Accepted packet length average = 1
Total in-flight flits = 25 (0 measured)
latency change    = 0.0707454
throughput change = 0.0454545
Class 0:
Packet latency average = 25.2248
	minimum = 7
	maximum = 94
Network latency average = 25.2248
	minimum = 7
	maximum = 94
Slowest packet = 30250
Flit latency average = 25.2248
	minimum = 7
	maximum = 94
Slowest flit = 30250
Fragmentation average = 0
	minimum = 0
	maximum = 0
Injected packet rate average = 0.048
	minimum = 0.038 (at node 6)
	maximum = 0.068 (at node 10)
Accepted packet rate average = 0.048375
	minimum = 0.032 (at node 0)
	maximum = 0.07 (at node 13)
Injected flit rate average = 0.048
	minimum = 0.038 (at node 6)
	maximum = 0.068 (at node 10)
Accepted flit rate average= 0.048375
	minimum = 0.032 (at node 0)
	maximum = 0.07 (at node 13)
Injected packet length average = 1
Accepted packet length average = 1
Total in-flight flits = 22 (0 measured)
latency change    = 0.0505696
throughput change = 0.0335917
Warmed up ...Time used is 1500 cycles
Class 0:
Packet latency average = 21.9034
	minimum = 7
	maximum = 101
Network latency average = 21.9034
	minimum = 7
	maximum = 101
Slowest packet = 30621
Flit latency average = 22.8235
	minimum = 7
	maximum = 101
Slowest flit = 30621
Fragmentation average = 0
	minimum = 0
	maximum = 0
Injected packet rate average = 0.046
	minimum = 0.026 (at node 1)
	maximum = 0.062 (at node 6)
Accepted packet rate average = 0.04675
	minimum = 0.03 (at node 13)
	maximum = 0.06 (at node 7)
Injected flit rate average = 0.046
	minimum = 0.026 (at node 1)
	maximum = 0.062 (at node 6)
Accepted flit rate average= 0.04675
	minimum = 0.03 (at node 13)
	maximum = 0.06 (at node 7)
Injected packet length average = 1
Accepted packet length average = 1
Total in-flight flits = 16 (16 measured)
latency change    = 0.151638
throughput change = 0.0347594
Class 0:
Packet latency average = 22.4674
	minimum = 7
	maximum = 101
Network latency average = 22.4674
	minimum = 7
	maximum = 101
Slowest packet = 30621
Flit latency average = 22.9231
	minimum = 7
	maximum = 101
Slowest flit = 30621
Fragmentation average = 0
	minimum = 0
	maximum = 0
Injected packet rate average = 0.0450625
	minimum = 0.033 (at node 10)
	maximum = 0.058 (at node 6)
Accepted packet rate average = 0.0455
	minimum = 0.04 (at node 0)
	maximum = 0.055 (at node 7)
Injected flit rate average = 0.0450625
	minimum = 0.033 (at node 10)
	maximum = 0.058 (at node 6)
Accepted flit rate average= 0.0455
	minimum = 0.04 (at node 0)
	maximum = 0.055 (at node 7)
Injected packet length average = 1
Accepted packet length average = 1
Total in-flight flits = 15 (15 measured)
latency change    = 0.0251036
throughput change = 0.0274725
Class 0:
Packet latency average = 22.6905
	minimum = 7
	maximum = 101
Network latency average = 22.6896
	minimum = 7
	maximum = 101
Slowest packet = 30621
Flit latency average = 22.9755
	minimum = 7
	maximum = 101
Slowest flit = 30621
Fragmentation average = 0
	minimum = 0
	maximum = 0
Injected packet rate average = 0.047375
	minimum = 0.0346667 (at node 14)
	maximum = 0.06 (at node 6)
Accepted packet rate average = 0.047625
	minimum = 0.04 (at node 6)
	maximum = 0.0546667 (at node 7)
Injected flit rate average = 0.047375
	minimum = 0.0346667 (at node 14)
	maximum = 0.06 (at node 6)
Accepted flit rate average= 0.047625
	minimum = 0.04 (at node 6)
	maximum = 0.0546667 (at node 7)
Injected packet length average = 1
Accepted packet length average = 1
Total in-flight flits = 16 (16 measured)
latency change    = 0.00982937
throughput change = 0.0446194
Class 0:
Packet latency average = 22.7742
	minimum = 7
	maximum = 101
Network latency average = 22.7735
	minimum = 7
	maximum = 101
Slowest packet = 30621
Flit latency average = 22.9826
	minimum = 7
	maximum = 101
Slowest flit = 30621
Fragmentation average = 0
	minimum = 0
	maximum = 0
Injected packet rate average = 0.0485937
	minimum = 0.0375 (at node 13)
	maximum = 0.0575 (at node 6)
Accepted packet rate average = 0.0485625
	minimum = 0.0415 (at node 14)
	maximum = 0.057 (at node 7)
Injected flit rate average = 0.0485937
	minimum = 0.0375 (at node 13)
	maximum = 0.0575 (at node 6)
Accepted flit rate average= 0.0485625
	minimum = 0.0415 (at node 14)
	maximum = 0.057 (at node 7)
Injected packet length average = 1
Accepted packet length average = 1
Total in-flight flits = 23 (23 measured)
latency change    = 0.00367506
throughput change = 0.019305
Draining all recorded packets ...
Draining remaining packets ...
Time taken is 3559 cycles
Class 0:
Packet latency average = 22.7323
	minimum = 7
	maximum = 85
Network latency average = 22.7323
	minimum = 7
	maximum = 85
Slowest packet = 32015
Flit latency average = 22.7323
	minimum = 7
	maximum = 85
Slowest flit = 32015
Fragmentation average = 0
	minimum = 0
	maximum = 0
Injected packet rate average = 0.04975
	minimum = 0.034 (at node 9)
	maximum = 0.07 (at node 12)
Accepted packet rate average = 0.047625
	minimum = 0.032 (at node 3)
	maximum = 0.072 (at node 2)
Injected flit rate average = 0.04975
	minimum = 0.034 (at node 9)
	maximum = 0.07 (at node 12)
Accepted flit rate average= 0.047625
	minimum = 0.032 (at node 3)
	maximum = 0.072 (at node 2)
Injected packet length average = 1
Accepted packet length average = 1
Total in-flight flits = 17 (0 measured)
latency change    = 1
throughput change = 1
Class 0:
Packet latency average = 23.1086
	minimum = 7
	maximum = 85
Network latency average = 23.1086
	minimum = 7
	maximum = 85
Slowest packet = 32015
Flit latency average = 23.1086
	minimum = 7
	maximum = 85
Slowest flit = 32015
Fragmentation average = 0
	minimum = 0
	maximum = 0
Injected packet rate average = 0.0515
	minimum = 0.04 (at node 13)
	maximum = 0.06 (at node 12)
Accepted packet rate average = 0.0500625
	minimum = 0.037 (at node 3)
	maximum = 0.06 (at node 2)
Injected flit rate average = 0.0515
	minimum = 0.04 (at node 13)
	maximum = 0.06 (at node 12)
Accepted flit rate average= 0.0500625
	minimum = 0.037 (at node 3)
	maximum = 0.06 (at node 2)
Injected packet length average = 1
Accepted packet length average = 1
Total in-flight flits = 23 (0 measured)
latency change    = 0.0162853
throughput change = 0.0486891
Class 0:
Packet latency average = 24.8915
	minimum = 7
	maximum = 89
Network latency average = 24.8915
	minimum = 7
	maximum = 89
Slowest packet = 32897
Flit latency average = 24.8915
	minimum = 7
	maximum = 89
Slowest flit = 32897
Fragmentation average = 0
	minimum = 0
	maximum = 0
Injected packet rate average = 0.046125
	minimum = 0.028 (at node 5)
	maximum = 0.068 (at node 8)
Accepted packet rate average = 0.04725
	minimum = 0.034 (at node 11)
	maximum = 0.066 (at node 9)
Injected flit rate average = 0.046125
	minimum = 0.028 (at node 5)
	maximum = 0.068 (at node 8)
Accepted flit rate average= 0.04725
	minimum = 0.034 (at node 11)
	maximum = 0.066 (at node 9)
Injected packet length average = 1
Accepted packet length average = 1
Total in-flight flits = 14 (0 measured)
latency change    = 0.0716276
throughput change = 0.0595238
Warmed up ...Time used is 1500 cycles
Class 0:
Packet latency average = 23.9599
	minimum = 7
	maximum = 94
Network latency average = 23.9599
	minimum = 7
	maximum = 94
Slowest packet = 33247
Flit latency average = 24.0799
	minimum = 7
	maximum = 94
Slowest flit = 33247
Fragmentation average = 0
	minimum = 0
	maximum = 0
Injected packet rate average = 0.052625
	minimum = 0.038 (at node 2)
	maximum = 0.07 (at node 6)
Accepted packet rate average = 0.051625
	minimum = 0.04 (at node 6)
	maximum = 0.064 (at node 0)
Injected flit rate average = 0.052625
	minimum = 0.038 (at node 2)
	maximum = 0.07 (at node 6)
Accepted flit rate average= 0.051625
	minimum = 0.04 (at node 6)
	maximum = 0.064 (at node 0)
Injected packet length average = 1
Accepted packet length average = 1
Total in-flight flits = 22 (22 measured)
latency change    = 0.0388831
throughput change = 0.0847458
Class 0:
Packet latency average = 23.901
	minimum = 7
	maximum = 94
Network latency average = 23.901
	minimum = 7
	maximum = 94
Slowest packet = 33247
Flit latency average = 23.9655
	minimum = 7
	maximum = 94
Slowest flit = 33247
Fragmentation average = 0
	minimum = 0
	maximum = 0
Injected packet rate average = 0.049
	minimum = 0.04 (at node 12)
	maximum = 0.061 (at node 6)
Accepted packet rate average = 0.048875
	minimum = 0.042 (at node 3)
	maximum = 0.059 (at node 14)
Injected flit rate average = 0.049
	minimum = 0.04 (at node 12)
	maximum = 0.061 (at node 6)
Accepted flit rate average= 0.048875
	minimum = 0.042 (at node 3)
	maximum = 0.059 (at node 14)
Injected packet length average = 1
Accepted packet length average = 1
Total in-flight flits = 16 (16 measured)
latency change    = 0.00246257
throughput change = 0.056266
Class 0:
Packet latency average = 23.5633
	minimum = 7
	maximum = 94
Network latency average = 23.5633
	minimum = 7
	maximum = 94
Slowest packet = 33247
Flit latency average = 23.6115
	minimum = 7
	maximum = 94
Slowest flit = 33247
Fragmentation average = 0
	minimum = 0
	maximum = 0
Injected packet rate average = 0.0477917
	minimum = 0.0386667 (at node 12)
	maximum = 0.058 (at node 6)
Accepted packet rate average = 0.047625
	minimum = 0.04 (at node 2)
	maximum = 0.0586667 (at node 14)
Injected flit rate average = 0.0477917
	minimum = 0.0386667 (at node 12)
	maximum = 0.058 (at node 6)
Accepted flit rate average= 0.047625
	minimum = 0.04 (at node 2)
	maximum = 0.0586667 (at node 14)
Injected packet length average = 1
Accepted packet length average = 1
Total in-flight flits = 18 (18 measured)
latency change    = 0.0143321
throughput change = 0.0262467
Class 0:
Packet latency average = 23.531
	minimum = 7
	maximum = 94
Network latency average = 23.531
	minimum = 7
	maximum = 94
Slowest packet = 33247
Flit latency average = 23.5665
	minimum = 7
	maximum = 94
Slowest flit = 33247
Fragmentation average = 0
	minimum = 0
	maximum = 0
Injected packet rate average = 0.0491562
	minimum = 0.0415 (at node 7)
	maximum = 0.057 (at node 6)
Accepted packet rate average = 0.048875
	minimum = 0.039 (at node 2)
	maximum = 0.0635 (at node 14)
Injected flit rate average = 0.0491562
	minimum = 0.0415 (at node 7)
	maximum = 0.057 (at node 6)
Accepted flit rate average= 0.048875
	minimum = 0.039 (at node 2)
	maximum = 0.0635 (at node 14)
Injected packet length average = 1
Accepted packet length average = 1
Total in-flight flits = 23 (23 measured)
latency change    = 0.00137532
throughput change = 0.0255754
Class 0:
Packet latency average = 23.4692
	minimum = 7
	maximum = 94
Network latency average = 23.4687
	minimum = 7
	maximum = 94
Slowest packet = 33247
Flit latency average = 23.4972
	minimum = 7
	maximum = 94
Slowest flit = 33247
Fragmentation average = 0
	minimum = 0
	maximum = 0
Injected packet rate average = 0.049625
	minimum = 0.0444 (at node 9)
	maximum = 0.0572 (at node 6)
Accepted packet rate average = 0.049425
	minimum = 0.0428 (at node 2)
	maximum = 0.0596 (at node 14)
Injected flit rate average = 0.049625
	minimum = 0.0444 (at node 9)
	maximum = 0.0572 (at node 6)
Accepted flit rate average= 0.049425
	minimum = 0.0428 (at node 2)
	maximum = 0.0596 (at node 14)
Injected packet length average = 1
Accepted packet length average = 1
Total in-flight flits = 22 (22 measured)
latency change    = 0.00263273
throughput change = 0.011128
Draining all recorded packets ...
Draining remaining packets ...
Time taken is 4094 cycles
Class 0:
Packet latency average = 23.0104
	minimum = 7
	maximum = 95
Network latency average = 23.0104
	minimum = 7
	maximum = 95
Slowest packet = 35460
Flit latency average = 23.0104
	minimum = 7
	maximum = 95
Slowest flit = 35460
Fragmentation average = 0
	minimum = 0
	maximum = 0
Injected packet rate average = 0.050125
	minimum = 0.03 (at node 3)
	maximum = 0.066 (at node 6)
Accepted packet rate average = 0.048
	minimum = 0.036 (at node 2)
	maximum = 0.068 (at node 4)
Injected flit rate average = 0.050125
	minimum = 0.03 (at node 3)
	maximum = 0.066 (at node 6)
Accepted flit rate average= 0.048
	minimum = 0.036 (at node 2)
	maximum = 0.068 (at node 4)
Injected packet length average = 1
Accepted packet length average = 1
Total in-flight flits = 17 (0 measured)
latency change    = 1
throughput change = 1
Class 0:
Packet latency average = 23.9126
	minimum = 7
	maximum = 102
Network latency average = 23.9126
	minimum = 7
	maximum = 102
Slowest packet = 35603
Flit latency average = 23.9126
	minimum = 7
	maximum = 102
Slowest flit = 35603
Fragmentation average = 0
	minimum = 0
	maximum = 0
Injected packet rate average = 0.05125
	minimum = 0.037 (at node 8)
	maximum = 0.064 (at node 15)
Accepted packet rate average = 0.0500625
	minimum = 0.035 (at node 2)
	maximum = 0.063 (at node 13)
Injected flit rate average = 0.05125
	minimum = 0.037 (at node 8)
	maximum = 0.064 (at node 15)
Accepted flit rate average= 0.0500625
	minimum = 0.035 (at node 2)
	maximum = 0.063 (at node 13)
Injected packet length average = 1
Accepted packet length average = 1
Total in-flight flits = 19 (0 measured)
latency change    = 0.0377287
throughput change = 0.0411985
Class 0:
Packet latency average = 23.6944
	minimum = 7
	maximum = 89
Network latency average = 23.6944
	minimum = 7
	maximum = 89
Slowest packet = 36005
Flit latency average = 23.6944
	minimum = 7
	maximum = 89
Slowest flit = 36005
Fragmentation average = 0
	minimum = 0
	maximum = 0
Injected packet rate average = 0.051125
	minimum = 0.034 (at node 15)
	maximum = 0.068 (at node 12)
Accepted packet rate average = 0.051125
	minimum = 0.034 (at node 14)
	maximum = 0.082 (at node 15)
Injected flit rate average = 0.051125
	minimum = 0.034 (at node 15)
	maximum = 0.068 (at node 12)
Accepted flit rate average= 0.051125
	minimum = 0.034 (at node 14)
	maximum = 0.082 (at node 15)
Injected packet length average = 1
Accepted packet length average = 1
Total in-flight flits = 19 (0 measured)
latency change    = 0.00921032
throughput change = 0.0207824
Warmed up ...Time used is 1500 cycles
Class 0:
Packet latency average = 24.5947
	minimum = 7
	maximum = 90
Network latency average = 24.5947
	minimum = 7
	maximum = 90
Slowest packet = 36509
Flit latency average = 24.8782
	minimum = 7
	maximum = 90
Slowest flit = 36509
Fragmentation average = 0
	minimum = 0
	maximum = 0
Injected packet rate average = 0.049375
	minimum = 0.032 (at node 11)
	maximum = 0.062 (at node 14)
Accepted packet rate average = 0.04925
	minimum = 0.036 (at node 5)
	maximum = 0.072 (at node 3)
Injected flit rate average = 0.049375
	minimum = 0.032 (at node 11)
	maximum = 0.062 (at node 14)
Accepted flit rate average= 0.04925
	minimum = 0.036 (at node 5)
	maximum = 0.072 (at node 3)
Injected packet length average = 1
Accepted packet length average = 1
Total in-flight flits = 20 (20 measured)
latency change    = 0.0366051
throughput change = 0.0380711
Class 0:
Packet latency average = 24.7171
	minimum = 7
	maximum = 109
Network latency average = 24.7171
	minimum = 7
	maximum = 109
Slowest packet = 36893
Flit latency average = 24.8486
	minimum = 7
	maximum = 109
Slowest flit = 36893
Fragmentation average = 0
	minimum = 0
	maximum = 0
Injected packet rate average = 0.0516875
	minimum = 0.041 (at node 11)
	maximum = 0.065 (at node 14)
Accepted packet rate average = 0.052
	minimum = 0.042 (at node 7)
	maximum = 0.063 (at node 4)
Injected flit rate average = 0.0516875
	minimum = 0.041 (at node 11)
	maximum = 0.065 (at node 14)
Accepted flit rate average= 0.052
	minimum = 0.042 (at node 7)
	maximum = 0.063 (at node 4)
Injected packet length average = 1
Accepted packet length average = 1
Total in-flight flits = 14 (14 measured)
latency change    = 0.00495327
throughput change = 0.0528846
Class 0:
[...]
	maximum = 0
Injected packet rate average = 0.0507083
	minimum = 0.042 (at node 1)
	maximum = 0.0633333 (at node 9)
Accepted packet rate average = 0.0501667
	minimum = 0.044 (at node 5)
	maximum = 0.0586667 (at node 0)
Injected flit rate average = 0.0507083
	minimum = 0.042 (at node 1)
	maximum = 0.0633333 (at node 9)
Accepted flit rate average= 0.0501667
	minimum = 0.044 (at node 5)
	maximum = 0.0586667 (at node 0)
Injected packet length average = 1
Accepted packet length average = 1
Total in-flight flits = 30 (30 measured)
latency change    = 0.0123238
throughput change = 0.0207641
Draining all recorded packets ...
Draining remaining packets ...
Time taken is 3099 cycles
Class 0:
Packet latency average = 22.6195
	minimum = 7
	maximum = 96
Network latency average = 22.6195
	minimum = 7
	maximum = 96
Slowest packet = 133968
Flit latency average = 22.6195
	minimum = 7
	maximum = 96
Slowest flit = 133968
Fragmentation average = 0
	minimum = 0
	maximum = 0
Injected packet rate average = 0.056375
	minimum = 0.038 (at node 0)
	maximum = 0.068 (at node 5)
Accepted packet rate average = 0.053875
	minimum = 0.038 (at node 0)
	maximum = 0.072 (at node 6)
Injected flit rate average = 0.056375
	minimum = 0.038 (at node 0)
	maximum = 0.068 (at node 5)
Accepted flit rate average= 0.053875
	minimum = 0.038 (at node 0)
	maximum = 0.072 (at node 6)
Injected packet length average = 1
Accepted packet length average = 1
Total in-flight flits = 20 (0 measured)
latency change    = 1
throughput change = 1
Class 0:
Packet latency average = 23.7506
	minimum = 7
	maximum = 116
Network latency average = 23.7506
	minimum = 7
	maximum = 116
Slowest packet = 134354
Flit latency average = 23.7506
	minimum = 7
	maximum = 116
Slowest flit = 134354
Fragmentation average = 0
	minimum = 0
	maximum = 0
Injected packet rate average = 0.0530625
	minimum = 0.046 (at node 4)
	maximum = 0.062 (at node 2)
Accepted packet rate average = 0.052375
	minimum = 0.042 (at node 0)
	maximum = 0.07 (at node 10)
Injected flit rate average = 0.0530625
	minimum = 0.046 (at node 4)
	maximum = 0.062 (at node 2)
Accepted flit rate average= 0.052375
	minimum = 0.042 (at node 0)
	maximum = 0.07 (at node 10)
Injected packet length average = 1
Accepted packet length average = 1
Total in-flight flits = 11 (0 measured)
latency change    = 0.0476244
throughput change = 0.0286396
Class 0:
Packet latency average = 22.8544
	minimum = 7
	maximum = 89
Network latency average = 22.8544
	minimum = 7
	maximum = 89
Slowest packet = 134817
Flit latency average = 22.8544
	minimum = 7
	maximum = 89
Slowest flit = 134817
Fragmentation average = 0
	minimum = 0
	maximum = 0
Injected packet rate average = 0.051875
	minimum = 0.034 (at node 10)
	maximum = 0.072 (at node 7)
Accepted packet rate average = 0.0515
	minimum = 0.042 (at node 2)
	maximum = 0.064 (at node 8)
Injected flit rate average = 0.051875
	minimum = 0.034 (at node 10)
	maximum = 0.072 (at node 7)
Accepted flit rate average= 0.0515
	minimum = 0.042 (at node 2)
	maximum = 0.064 (at node 8)
Injected packet length average = 1
Accepted packet length average = 1
Total in-flight flits = 14 (0 measured)
latency change    = 0.0392147
throughput change = 0.0169903
Warmed up ...Time used is 1500 cycles
Class 0:
Packet latency average = 23.5077
	minimum = 7
	maximum = 93
Network latency average = 23.5077
	minimum = 7
	maximum = 93
Slowest packet = 135405
Flit latency average = 23.5296
	minimum = 7
	maximum = 93
Slowest flit = 135405
Fragmentation average = 0
	minimum = 0
	maximum = 0
Injected packet rate average = 0.050375
	minimum = 0.034 (at node 1)
	maximum = 0.068 (at node 5)
Accepted packet rate average = 0.05075
	minimum = 0.034 (at node 2)
	maximum = 0.072 (at node 5)
Injected flit rate average = 0.050375
	minimum = 0.034 (at node 1)
	maximum = 0.068 (at node 5)
Accepted flit rate average= 0.05075
	minimum = 0.034 (at node 2)
	maximum = 0.072 (at node 5)
Injected packet length average = 1
Accepted packet length average = 1
Total in-flight flits = 11 (11 measured)
latency change    = 0.0277903
throughput change = 0.0147783
Class 0:
Packet latency average = 23.8348
	minimum = 7
	maximum = 113
Network latency average = 23.8348
	minimum = 7
	maximum = 113
Slowest packet = 135563
Flit latency average = 23.8403
	minimum = 7
	maximum = 113
Slowest flit = 135563
Fragmentation average = 0
	minimum = 0
	maximum = 0
Injected packet rate average = 0.0498125
	minimum = 0.037 (at node 1)
	maximum = 0.057 (at node 6)
Accepted packet rate average = 0.0496875
	minimum = 0.032 (at node 14)
	maximum = 0.065 (at node 15)
Injected flit rate average = 0.0498125
	minimum = 0.037 (at node 1)
	maximum = 0.057 (at node 6)
Accepted flit rate average= 0.0496875
	minimum = 0.032 (at node 14)
	maximum = 0.065 (at node 15)
Injected packet length average = 1
Accepted packet length average = 1
Total in-flight flits = 16 (16 measured)
latency change    = 0.0137267
throughput change = 0.0213836
Class 0:
Packet latency average = 23.9226
	minimum = 7
	maximum = 113
Network latency average = 23.9217
	minimum = 7
	maximum = 113
Slowest packet = 135563
Flit latency average = 23.9243
	minimum = 7
	maximum = 113
Slowest flit = 135563
Fragmentation average = 0
	minimum = 0
	maximum = 0
Injected packet rate average = 0.0513333
	minimum = 0.042 (at node 1)
	maximum = 0.0593333 (at node 5)
Accepted packet rate average = 0.0511667
	minimum = 0.038 (at node 1)
	maximum = 0.0666667 (at node 15)
Injected flit rate average = 0.0513333
	minimum = 0.042 (at node 1)
	maximum = 0.0593333 (at node 5)
Accepted flit rate average= 0.0511667
	minimum = 0.038 (at node 1)
	maximum = 0.0666667 (at node 15)
Injected packet length average = 1
Accepted packet length average = 1
Total in-flight flits = 18 (18 measured)
latency change    = 0.00366779
throughput change = 0.0289088
Draining all recorded packets ...
Draining remaining packets ...
Time taken is 3089 cycles
Class 0:
Packet latency average = 25.1806
	minimum = 7
	maximum = 105
Network latency average = 25.1806
	minimum = 7
	maximum = 105
Slowest packet = 136521
Flit latency average = 25.1806
	minimum = 7
	maximum = 105
Slowest flit = 136521
Fragmentation average = 0
	minimum = 0
	maximum = 0
Injected packet rate average = 0.049625
	minimum = 0.036 (at node 15)
	maximum = 0.066 (at node 2)
Accepted packet rate average = 0.04775
	minimum = 0.032 (at node 15)
	maximum = 0.064 (at node 5)
Injected flit rate average = 0.049625
	minimum = 0.036 (at node 15)
	maximum = 0.066 (at node 2)
Accepted flit rate average= 0.04775
	minimum = 0.032 (at node 15)
	maximum = 0.064 (at node 5)
Injected packet length average = 1
Accepted packet length average = 1
Total in-flight flits = 15 (0 measured)
latency change    = 1
throughput change = 1
Class 0:
Packet latency average = 24.6932
	minimum = 7
	maximum = 105
Network latency average = 24.6932
	minimum = 7
	maximum = 105
Slowest packet = 136521
Flit latency average = 24.6932
	minimum = 7
	maximum = 105
Slowest flit = 136521
Fragmentation average = 0
	minimum = 0
	maximum = 0
Injected packet rate average = 0.04775
	minimum = 0.038 (at node 9)
	maximum = 0.057 (at node 2)
Accepted packet rate average = 0.0470625
	minimum = 0.042 (at node 2)
	maximum = 0.054 (at node 3)
Injected flit rate average = 0.04775
	minimum = 0.038 (at node 9)
	maximum = 0.057 (at node 2)
Accepted flit rate average= 0.0470625
	minimum = 0.042 (at node 2)
	maximum = 0.054 (at node 3)
Injected packet length average = 1
Accepted packet length average = 1
Total in-flight flits = 11 (0 measured)
latency change    = 0.0197383
throughput change = 0.0146082
Class 0:
Packet latency average = 26.8519
	minimum = 7
	maximum = 133
Network latency average = 26.8519
	minimum = 7
	maximum = 133
Slowest packet = 137248
Flit latency average = 26.8519
	minimum = 7
	maximum = 133
Slowest flit = 137248
Fragmentation average = 0
	minimum = 0
	maximum = 0
Injected packet rate average = 0.050125
	minimum = 0.04 (at node 9)
	maximum = 0.066 (at node 10)
Accepted packet rate average = 0.048125
	minimum = 0.034 (at node 9)
	maximum = 0.06 (at node 0)
Injected flit rate average = 0.050125
	minimum = 0.04 (at node 9)
	maximum = 0.066 (at node 10)
Accepted flit rate average= 0.048125
	minimum = 0.034 (at node 9)
	maximum = 0.06 (at node 0)
Injected packet length average = 1
Accepted packet length average = 1
Total in-flight flits = 27 (0 measured)
latency change    = 0.0803935
throughput change = 0.0220779
Warmed up ...Time used is 1500 cycles
Class 0:
Packet latency average = 22.6148
	minimum = 7
	maximum = 95
Network latency average = 22.6148
	minimum = 7
	maximum = 95
Slowest packet = 137830
Flit latency average = 23.1404
	minimum = 7
	maximum = 95
Slowest flit = 137830
Fragmentation average = 0
	minimum = 0
	maximum = 0
Injected packet rate average = 0.05025
	minimum = 0.03 (at node 0)
	maximum = 0.074 (at node 13)
Accepted packet rate average = 0.05075
	minimum = 0.028 (at node 8)
	maximum = 0.076 (at node 9)
Injected flit rate average = 0.05025
	minimum = 0.03 (at node 0)
	maximum = 0.074 (at node 13)
Accepted flit rate average= 0.05075
	minimum = 0.028 (at node 8)
	maximum = 0.076 (at node 9)
Injected packet length average = 1
Accepted packet length average = 1
Total in-flight flits = 23 (23 measured)
latency change    = 0.187363
throughput change = 0.0517241
Class 0:
Packet latency average = 23.7509
	minimum = 7
	maximum = 100
Network latency average = 23.7509
	minimum = 7
	maximum = 100
Slowest packet = 138060
Flit latency average = 23.9732
	minimum = 7
	maximum = 100
Slowest flit = 138060
Fragmentation average = 0
	minimum = 0
	maximum = 0
Injected packet rate average = 0.050625
	minimum = 0.034 (at node 9)
	maximum = 0.068 (at node 13)
Accepted packet rate average = 0.051375
	minimum = 0.031 (at node 8)
	maximum = 0.069 (at node 9)
Injected flit rate average = 0.050625
	minimum = 0.034 (at node 9)
	maximum = 0.068 (at node 13)
Accepted flit rate average= 0.051375
	minimum = 0.031 (at node 8)
	maximum = 0.069 (at node 9)
Injected packet length average = 1
Accepted packet length average = 1
Total in-flight flits = 15 (15 measured)
latency change    = 0.0478367
throughput change = 0.0121655
Class 0:
Packet latency average = 24.0652
	minimum = 7
	maximum = 123
Network latency average = 24.0644
	minimum = 7
	maximum = 123
Slowest packet = 138449
Flit latency average = 24.2086
	minimum = 7
	maximum = 123
Slowest flit = 138449
Fragmentation average = 0
	minimum = 0
	maximum = 0
Injected packet rate average = 0.0500417
	minimum = 0.0413333 (at node 0)
	maximum = 0.0593333 (at node 10)
Accepted packet rate average = 0.0503333
	minimum = 0.038 (at node 8)
	maximum = 0.0593333 (at node 9)
Injected flit rate average = 0.0500417
	minimum = 0.0413333 (at node 0)
	maximum = 0.0593333 (at node 10)
Accepted flit rate average= 0.0503333
	minimum = 0.038 (at node 8)
	maximum = 0.0593333 (at node 9)
Injected packet length average = 1
Accepted packet length average = 1
Total in-flight flits = 20 (20 measured)
latency change    = 0.0130585
throughput change = 0.0206954
Class 0:
Packet latency average = 23.9925
	minimum = 7
	maximum = 123
Network latency average = 23.9918
	minimum = 7
	maximum = 123
Slowest packet = 138449
Flit latency average = 24.1006
	minimum = 7
	maximum = 123
Slowest flit = 138449
Fragmentation average = 0
	minimum = 0
	maximum = 0
Injected packet rate average = 0.0502812
	minimum = 0.0425 (at node 0)
	maximum = 0.0565 (at node 8)
Accepted packet rate average = 0.050625
	minimum = 0.0415 (at node 8)
	maximum = 0.0615 (at node 9)
Injected flit rate average = 0.0502812
	minimum = 0.0425 (at node 0)
	maximum = 0.0565 (at node 8)
Accepted flit rate average= 0.050625
	minimum = 0.0415 (at node 8)
	maximum = 0.0615 (at node 9)
Injected packet length average = 1
Accepted packet length average = 1
Total in-flight flits = 16 (16 measured)
latency change    = 0.00303145
throughput change = 0.00576132
Draining all recorded packets ...
Draining remaining packets ...
Time taken is 3611 cycles
Class 0:
Packet latency average = 21.7408
	minimum = 7
	maximum = 82
Network latency average = 21.7408
	minimum = 7
	maximum = 82
Slowest packet = 139291
Flit latency average = 21.7408
	minimum = 7
	maximum = 82
Slowest flit = 139291
Fragmentation average = 0
	minimum = 0
	maximum = 0
Injected packet rate average = 0.046875
	minimum = 0.03 (at node 6)
	maximum = 0.058 (at node 14)
Accepted packet rate average = 0.044375
	minimum = 0.034 (at node 5)
	maximum = 0.064 (at node 0)
Injected flit rate average = 0.046875
	minimum = 0.03 (at node 6)
	maximum = 0.058 (at node 14)
Accepted flit rate average= 0.044375
	minimum = 0.034 (at node 5)
	maximum = 0.064 (at node 0)
Injected packet length average = 1
Accepted packet length average = 1
Total in-flight flits = 20 (0 measured)
latency change    = 1
throughput change = 1
Class 0:
Packet latency average = 23.2855
	minimum = 7
	maximum = 82
Network latency average = 23.2842
	minimum = 7
	maximum = 82
Slowest packet = 139291
Flit latency average = 23.2842
	minimum = 7
	maximum = 82
Slowest flit = 139291
Fragmentation average = 0
	minimum = 0
	maximum = 0
Injected packet rate average = 0.048125
	minimum = 0.033 (at node 2)
	maximum = 0.06 (at node 9)
Accepted packet rate average = 0.0470625
	minimum = 0.031 (at node 8)
	maximum = 0.055 (at node 4)
Injected flit rate average = 0.048125
	minimum = 0.033 (at node 2)
	maximum = 0.06 (at node 9)
Accepted flit rate average= 0.0470625
	minimum = 0.031 (at node 8)
	maximum = 0.055 (at node 4)
Injected packet length average = 1
Accepted packet length average = 1
Total in-flight flits = 17 (0 measured)
latency change    = 0.0663365
throughput change = 0.0571049
Class 0:
Packet latency average = 24.0842
	minimum = 7
	maximum = 98
Network latency average = 24.0842
	minimum = 7
	maximum = 98
Slowest packet = 140185
Flit latency average = 24.0842
	minimum = 7
	maximum = 98
Slowest flit = 140185
Fragmentation average = 0
	minimum = 0
	maximum = 0
Injected packet rate average = 0.047625
	minimum = 0.024 (at node 9)
	maximum = 0.072 (at node 10)
Accepted packet rate average = 0.0475
	minimum = 0.032 (at node 8)
	maximum = 0.064 (at node 7)
Injected flit rate average = 0.047625
	minimum = 0.024 (at node 9)
	maximum = 0.072 (at node 10)
Accepted flit rate average= 0.0475
	minimum = 0.032 (at node 8)
	maximum = 0.064 (at node 7)
Injected packet length average = 1
Accepted packet length average = 1
Total in-flight flits = 18 (0 measured)
latency change    = 0.0331622
throughput change = 0.00921053
Warmed up ...Time used is 1500 cycles
Class 0:
Packet latency average = 25.2839
	minimum = 7
	maximum = 84
Network latency average = 25.2839
	minimum = 7
	maximum = 84
Slowest packet = 140384
Flit latency average = 25.6514
	minimum = 7
	maximum = 84
Slowest flit = 140384
Fragmentation average = 0
	minimum = 0
	maximum = 0
Injected packet rate average = 0.052875
	minimum = 0.032 (at node 2)
	maximum = 0.082 (at node 15)
Accepted packet rate average = 0.052
	minimum = 0.032 (at node 8)
	maximum = 0.072 (at node 3)
Injected flit rate average = 0.052875
	minimum = 0.032 (at node 2)
	maximum = 0.082 (at node 15)
Accepted flit rate average= 0.052
	minimum = 0.032 (at node 8)
	maximum = 0.072 (at node 3)
Injected packet length average = 1
Accepted packet length average = 1
Total in-flight flits = 25 (25 measured)
latency change    = 0.0474495
throughput change = 0.0865385
Class 0:
Packet latency average = 24.4627
	minimum = 7
	maximum = 106
Network latency average = 24.4627
	minimum = 7
	maximum = 106
Slowest packet = 140755
Flit latency average = 24.6769
	minimum = 7
	maximum = 106
Slowest flit = 140755
Fragmentation average = 0
	minimum = 0
	maximum = 0
Injected packet rate average = 0.0490625
	minimum = 0.037 (at node 4)
	maximum = 0.06 (at node 15)
Accepted packet rate average = 0.0489375
	minimum = 0.03 (at node 9)
	maximum = 0.061 (at node 11)
Injected flit rate average = 0.0490625
	minimum = 0.037 (at node 4)
	maximum = 0.06 (at node 15)
Accepted flit rate average= 0.0489375
	minimum = 0.03 (at node 9)
	maximum = 0.061 (at node 11)
Injected packet length average = 1
Accepted packet length average = 1
Total in-flight flits = 20 (20 measured)
latency change    = 0.0335684
throughput change = 0.0625798
Class 0:
Packet latency average = 24.4304
	minimum = 7
	maximum = 106
Network latency average = 24.4304
	minimum = 7
	maximum = 106
Slowest packet = 140755
Flit latency average = 24.5719
	minimum = 7
	maximum = 106
Slowest flit = 140755
Fragmentation average = 0
	minimum = 0
	maximum = 0
Injected packet rate average = 0.0494583
	minimum = 0.036 (at node 4)
	maximum = 0.0593333 (at node 15)
Accepted packet rate average = 0.0495417
	minimum = 0.0346667 (at node 14)
	maximum = 0.0613333 (at node 4)
Injected flit rate average = 0.0494583
	minimum = 0.036 (at node 4)
	maximum = 0.0593333 (at node 15)
Accepted flit rate average= 0.0495417
	minimum = 0.0346667 (at node 14)
	maximum = 0.0613333 (at node 4)
Injected packet length average = 1
Accepted packet length average = 1
Total in-flight flits = 16 (16 measured)
latency change    = 0.00132391
throughput change = 0.0121951
Class 0:
Packet latency average = 24.6885
	minimum = 7
	maximum = 106
Network latency average = 24.6885
	minimum = 7
	maximum = 106
Slowest packet = 140755
Flit latency average = 24.7916
	minimum = 7
	maximum = 106
Slowest flit = 140755
Fragmentation average = 0
	minimum = 0
	maximum = 0
Injected packet rate average = 0.0499062
	minimum = 0.0405 (at node 4)
	maximum = 0.057 (at node 15)
Accepted packet rate average = 0.049625
	minimum = 0.038 (at node 9)
	maximum = 0.063 (at node 15)
Injected flit rate average = 0.0499062
	minimum = 0.0405 (at node 4)
	maximum = 0.057 (at node 15)
Accepted flit rate average= 0.049625
	minimum = 0.038 (at node 9)
	maximum = 0.063 (at node 15)
Injected packet length average = 1
Accepted packet length average = 1
Total in-flight flits = 27 (27 measured)
latency change    = 0.0104556
throughput change = 0.00167926
Class 0:
Packet latency average = 24.4668
	minimum = 7
	maximum = 106
Network latency average = 24.4668
	minimum = 7
	maximum = 106
Slowest packet = 140755
Flit latency average = 24.5491
	minimum = 7
	maximum = 106
Slowest flit = 140755
Fragmentation average = 0
	minimum = 0
	maximum = 0
Injected packet rate average = 0.051225
	minimum = 0.0416 (at node 10)
	maximum = 0.058 (at node 11)
Accepted packet rate average = 0.0509
	minimum = 0.0408 (at node 14)
	maximum = 0.0644 (at node 15)
Injected flit rate average = 0.051225
	minimum = 0.0416 (at node 10)
	maximum = 0.058 (at node 11)
Accepted flit rate average= 0.0509
	minimum = 0.0408 (at node 14)
	maximum = 0.0644 (at node 15)
Injected packet length average = 1
Accepted packet length average = 1
Total in-flight flits = 31 (31 measured)
latency change    = 0.00906274
throughput change = 0.0250491
Draining all recorded packets ...
Draining remaining packets ...
Time taken is 4130 cycles
====== Overall Traffic Statistics ======
====== Traffic class 0 ======
Packet latency average = 23.9365 (50 samples)
	minimum = 7 (50 samples)
	maximum = 110.76 (50 samples)
Network latency average = 23.9361 (50 samples)
	minimum = 7 (50 samples)
	maximum = 110.76 (50 samples)
Flit latency average = 24.0101 (50 samples)
	minimum = 7 (50 samples)
	maximum = 111.12 (50 samples)
Fragmentation average = 0 (50 samples)
	minimum = 0 (50 samples)
	maximum = 0 (50 samples)
Injected packet rate average = 0.0499707 (50 samples)
	minimum = 0.0418007 (50 samples)
	maximum = 0.0592707 (50 samples)
Accepted packet rate average = 0.0499252 (50 samples)
	minimum = 0.041194 (50 samples)
	maximum = 0.059946 (50 samples)
Injected flit rate average = 0.0499707 (50 samples)
	minimum = 0.0418007 (50 samples)
	maximum = 0.0592707 (50 samples)
Accepted flit rate average = 0.0499252 (50 samples)
	minimum = 0.041194 (50 samples)
	maximum = 0.059946 (50 samples)
Injected packet size average = 1 (50 samples)
Accepted packet size average = 1 (50 samples)
Hops average = 4.06054 (50 samples)
Total run time 2.10395
