BEGIN Configuration File: /tmp/tmp1ct0mory.cfg
topology = mesh;
k = 4;
n = 2;
routing_function = gnn_port_score_route_4x4;
num_vcs = 4;
vc_buf_size = 4;
wait_for_tail_credit = 1;
vc_allocator = islip;
sw_allocator = islip;
alloc_iters = 1;
credit_delay = 2;
routing_delay = 1;
vc_alloc_delay = 1;
sw_alloc_delay = 1;
input_speedup = 2;
output_speedup = 1;
internal_speedup = 1.0;
traffic = uniform;
packet_size = 1;
sim_type = latency;
injection_rate = 0.1;
warmup_periods = 3;
sample_period = 500;
sim_count = 50;
seed = 2;
link_failures = 0;
fail_seed = 101;

END Configuration File: /tmp/tmp1ct0mory.cfg
Class 0:
Packet latency average = 20.663
	minimum = 7
	maximum = 56
Network latency average = 20.6616
	minimum = 7
	maximum = 56
Slowest packet = 163
Flit latency average = 20.6616
	minimum = 7
	maximum = 56
Slowest flit = 163
Fragmentation average = 0
	minimum = 0
	maximum = 0
Injected packet rate average = 0.094375
	minimum = 0.074 (at node 1)
	maximum = 0.118 (at node 7)
Accepted packet rate average = 0.0905
	minimum = 0.072 (at node 0)
	maximum = 0.112 (at node 10)
Injected flit rate average = 0.094375
	minimum = 0.074 (at node 1)
	maximum = 0.118 (at node 7)
Accepted flit rate average= 0.0905
	minimum = 0.072 (at node 0)
	maximum = 0.112 (at node 10)
Injected packet length average = 1
Accepted packet length average = 1
Total in-flight flits = 31 (0 measured)
latency change    = 1
throughput change = 1
Class 0:
Packet latency average = 21.1033
	minimum = 7
	maximum = 56
Network latency average = 21.1026
	minimum = 7
	maximum = 56
Slowest packet = 163
Flit latency average = 21.1026
	minimum = 7
	maximum = 56
Slowest flit = 163
Fragmentation average = 0
	minimum = 0
	maximum = 0
Injected packet rate average = 0.097875
	minimum = 0.077 (at node 9)
	maximum = 0.116 (at node 6)
Accepted packet rate average = 0.095625
	minimum = 0.079 (at node 4)
	maximum = 0.112 (at node 1)
Injected flit rate average = 0.097875
	minimum = 0.077 (at node 9)
	maximum = 0.116 (at node 6)
Accepted flit rate average= 0.095625
	minimum = 0.079 (at node 4)
	maximum = 0.112 (at node 1)
Injected packet length average = 1
Accepted packet length average = 1
Total in-flight flits = 36 (0 measured)
latency change    = 0.0208633
throughput change = 0.0535948
Class 0:
Packet latency average = 21.9948
	minimum = 7
	maximum = 61
Network latency average = 21.9896
	minimum = 7
	maximum = 61
Slowest packet = 2192
Flit latency average = 21.9896
	minimum = 7
	maximum = 61
Slowest flit = 2192
Fragmentation average = 0
	minimum = 0
	maximum = 0
Injected packet rate average = 0.094875
	minimum = 0.076 (at node 14)
	maximum = 0.114 (at node 4)
Accepted packet rate average = 0.096
	minimum = 0.076 (at node 12)
	maximum = 0.12 (at node 15)
Injected flit rate average = 0.094875
	minimum = 0.076 (at node 14)
	maximum = 0.114 (at node 4)
Accepted flit rate average= 0.096
	minimum = 0.076 (at node 12)
	maximum = 0.12 (at node 15)
Injected packet length average = 1
Accepted packet length average = 1
Total in-flight flits = 27 (0 measured)
latency change    = 0.0405334
throughput change = 0.00390625
Warmed up ...Time used is 1500 cycles
Class 0:
Packet latency average = 22.5337
	minimum = 7
	maximum = 67
Network latency average = 22.5312
	minimum = 7
	maximum = 67
Slowest packet = 2779
Flit latency average = 22.6403
	minimum = 7
	maximum = 67
Slowest flit = 2779
Fragmentation average = 0
	minimum = 0
	maximum = 0
Injected packet rate average = 0.10825
	minimum = 0.084 (at node 6)
	maximum = 0.15 (at node 10)
Accepted packet rate average = 0.107375
	minimum = 0.082 (at node 9)
	maximum = 0.126 (at node 15)
Injected flit rate average = 0.10825
	minimum = 0.084 (at node 6)
	maximum = 0.15 (at node 10)
Accepted flit rate average= 0.107375
	minimum = 0.082 (at node 9)
	maximum = 0.126 (at node 15)
Injected packet length average = 1
Accepted packet length average = 1
Total in-flight flits = 34 (34 measured)
latency change    = 0.0239137
throughput change = 0.105937
Class 0:
Packet latency average = 22.1075
	minimum = 7
	maximum = 67
Network latency average = 22.1057
	minimum = 7
	maximum = 67
Slowest packet = 2779
Flit latency average = 22.1696
	minimum = 7
	maximum = 67
Slowest flit = 2779
Fragmentation average = 0
	minimum = 0
	maximum = 0
Injected packet rate average = 0.103438
	minimum = 0.083 (at node 6)
	maximum = 0.133 (at node 10)
Accepted packet rate average = 0.102813
	minimum = 0.078 (at node 9)
	maximum = 0.118 (at node 0)
Injected flit rate average = 0.103438
	minimum = 0.083 (at node 6)
	maximum = 0.133 (at node 10)
Accepted flit rate average= 0.102813
	minimum = 0.078 (at node 9)
	maximum = 0.118 (at node 0)
Injected packet length average = 1
Accepted packet length average = 1
Total in-flight flits = 37 (37 measured)
latency change    = 0.0192746
throughput change = 0.0443769
Class 0:
Packet latency average = 21.9879
	minimum = 7
	maximum = 68
Network latency average = 21.9867
	minimum = 7
	maximum = 68
Slowest packet = 4346
Flit latency average = 22.0313
	minimum = 7
	maximum = 68
Slowest flit = 4346
Fragmentation average = 0
	minimum = 0
	maximum = 0
Injected packet rate average = 0.101625
	minimum = 0.0853333 (at node 6)
	maximum = 0.129333 (at node 10)
Accepted packet rate average = 0.101125
	minimum = 0.09 (at node 9)
	maximum = 0.125333 (at node 0)
Injected flit rate average = 0.101625
	minimum = 0.0853333 (at node 6)
	maximum = 0.129333 (at node 10)
Accepted flit rate average= 0.101125
	minimum = 0.09 (at node 9)
	maximum = 0.125333 (at node 0)
Injected packet length average = 1
Accepted packet length average = 1
Total in-flight flits = 39 (39 measured)
latency change    = 0.00544042
throughput change = 0.0166873
Class 0:
Packet latency average = 21.8178
	minimum = 7
	maximum = 68
Network latency average = 21.8162
	minimum = 7
	maximum = 68
Slowest packet = 4346
Flit latency average = 21.851
	minimum = 7
	maximum = 68
Slowest flit = 4346
Fragmentation average = 0
	minimum = 0
	maximum = 0
Injected packet rate average = 0.101719
	minimum = 0.091 (at node 1)
	maximum = 0.1305 (at node 10)
Accepted packet rate average = 0.1015
	minimum = 0.089 (at node 14)
	maximum = 0.121 (at node 0)
Injected flit rate average = 0.101719
	minimum = 0.091 (at node 1)
	maximum = 0.1305 (at node 10)
Accepted flit rate average= 0.1015
	minimum = 0.089 (at node 14)
	maximum = 0.121 (at node 0)
Injected packet length average = 1
Accepted packet length average = 1
Total in-flight flits = 34 (34 measured)
latency change    = 0.00779907
throughput change = 0.00369458
Draining all recorded packets ...
Draining remaining packets ...
Time taken is 3599 cycles
Class 0:
Packet latency average = 21.8528
	minimum = 7
	maximum = 59
Network latency average = 21.8453
	minimum = 7
	maximum = 59
Slowest packet = 6169
Flit latency average = 21.8453
	minimum = 7
	maximum = 59
Slowest flit = 6169
Fragmentation average = 0
	minimum = 0
	maximum = 0
Injected packet rate average = 0.10425
	minimum = 0.074 (at node 1)
	maximum = 0.122 (at node 15)
Accepted packet rate average = 0.099375
	minimum = 0.086 (at node 6)
	maximum = 0.116 (at node 10)
Injected flit rate average = 0.10425
	minimum = 0.074 (at node 1)
	maximum = 0.122 (at node 15)
Accepted flit rate average= 0.099375
	minimum = 0.086 (at node 6)
	maximum = 0.116 (at node 10)
Injected packet length average = 1
Accepted packet length average = 1
Total in-flight flits = 39 (0 measured)
latency change    = 1
throughput change = 1
Class 0:
Packet latency average = 22.3945
	minimum = 7
	maximum = 75
Network latency average = 22.3859
	minimum = 7
	maximum = 75
Slowest packet = 6980
Flit latency average = 22.3859
	minimum = 7
	maximum = 75
Slowest flit = 6980
Fragmentation average = 0
	minimum = 0
	maximum = 0
Injected packet rate average = 0.103938
	minimum = 0.087 (at node 1)
	maximum = 0.12 (at node 13)
Accepted packet rate average = 0.101875
	minimum = 0.088 (at node 6)
	maximum = 0.118 (at node 10)
Injected flit rate average = 0.103938
	minimum = 0.087 (at node 1)
	maximum = 0.12 (at node 13)
Accepted flit rate average= 0.101875
	minimum = 0.088 (at node 6)
	maximum = 0.118 (at node 10)
Injected packet length average = 1
Accepted packet length average = 1
Total in-flight flits = 33 (0 measured)
latency change    = 0.0241867
throughput change = 0.0245399
Class 0:
Packet latency average = 22.8783
	minimum = 7
	maximum = 71
Network latency average = 22.8675
	minimum = 7
	maximum = 71
Slowest packet = 7688
Flit latency average = 22.8675
	minimum = 7
	maximum = 71
Slowest flit = 7688
Fragmentation average = 0
	minimum = 0
	maximum = 0
Injected packet rate average = 0.10525
	minimum = 0.068 (at node 0)
	maximum = 0.132 (at node 8)
Accepted packet rate average = 0.10475
	minimum = 0.074 (at node 7)
	maximum = 0.136 (at node 10)
Injected flit rate average = 0.10525
	minimum = 0.068 (at node 0)
	maximum = 0.132 (at node 8)
Accepted flit rate average= 0.10475
	minimum = 0.074 (at node 7)
	maximum = 0.136 (at node 10)
Injected packet length average = 1
Accepted packet length average = 1
Total in-flight flits = 37 (0 measured)
latency change    = 0.0211468
throughput change = 0.0274463
Warmed up ...Time used is 1500 cycles
Class 0:
Packet latency average = 23.1451
	minimum = 7
	maximum = 69
Network latency average = 23.1373
	minimum = 7
	maximum = 69
Slowest packet = 8281
Flit latency average = 23.2435
	minimum = 7
	maximum = 69
Slowest flit = 8281
Fragmentation average = 0
	minimum = 0
	maximum = 0
Injected packet rate average = 0.1
	minimum = 0.068 (at node 11)
	maximum = 0.13 (at node 1)
Accepted packet rate average = 0.101125
	minimum = 0.07 (at node 2)
	maximum = 0.12 (at node 5)
Injected flit rate average = 0.1
	minimum = 0.068 (at node 11)
	maximum = 0.13 (at node 1)
Accepted flit rate average= 0.101125
	minimum = 0.07 (at node 2)
	maximum = 0.12 (at node 5)
Injected packet length average = 1
Accepted packet length average = 1
Total in-flight flits = 28 (28 measured)
latency change    = 0.0115271
throughput change = 0.0358467
Class 0:
Packet latency average = 22.3808
	minimum = 7
	maximum = 69
Network latency average = 22.3756
	minimum = 7
	maximum = 69
Slowest packet = 8281
Flit latency average = 22.4478
	minimum = 7
	maximum = 69
Slowest flit = 8281
Fragmentation average = 0
	minimum = 0
	maximum = 0
Injected packet rate average = 0.098375
	minimum = 0.075 (at node 11)
	maximum = 0.11 (at node 7)
Accepted packet rate average = 0.0988125
	minimum = 0.083 (at node 0)
	maximum = 0.113 (at node 4)
Injected flit rate average = 0.098375
	minimum = 0.075 (at node 11)
	maximum = 0.11 (at node 7)
Accepted flit rate average= 0.0988125
	minimum = 0.083 (at node 0)
	maximum = 0.113 (at node 4)
Injected packet length average = 1
Accepted packet length average = 1
Total in-flight flits = 30 (30 measured)
latency change    = 0.0341475
throughput change = 0.0234029
Class 0:
Packet latency average = 22.3298
	minimum = 7
	maximum = 69
Network latency average = 22.3233
	minimum = 7
	maximum = 69
Slowest packet = 8281
Flit latency average = 22.3724
	minimum = 7
	maximum = 69
Slowest flit = 8281
Fragmentation average = 0
	minimum = 0
	maximum = 0
Injected packet rate average = 0.0980417
	minimum = 0.0773333 (at node 12)
	maximum = 0.108667 (at node 5)
Accepted packet rate average = 0.0984583
	minimum = 0.082 (at node 0)
	maximum = 0.114667 (at node 4)
Injected flit rate average = 0.0980417
	minimum = 0.0773333 (at node 12)
	maximum = 0.108667 (at node 5)
Accepted flit rate average= 0.0984583
	minimum = 0.082 (at node 0)
	maximum = 0.114667 (at node 4)
Injected packet length average = 1
Accepted packet length average = 1
Total in-flight flits = 27 (27 measured)
latency change    = 0.00228746
throughput change = 0.00359712
Draining all recorded packets ...
Draining remaining packets ...
Time taken is 3061 cycles
Class 0:
Packet latency average = 21.0393
	minimum = 7
	maximum = 54
Network latency average = 21.0367
	minimum = 7
	maximum = 54
Slowest packet = 11031
Flit latency average = 21.0367
	minimum = 7
	maximum = 54
Slowest flit = 11031
Fragmentation average = 0
	minimum = 0
	maximum = 0
Injected packet rate average = 0.101
	minimum = 0.076 (at node 4)
	maximum = 0.126 (at node 3)
Accepted packet rate average = 0.095375
	minimum = 0.066 (at node 7)
	maximum = 0.114 (at node 10)
Injected flit rate average = 0.101
	minimum = 0.076 (at node 4)
	maximum = 0.126 (at node 3)
Accepted flit rate average= 0.095375
	minimum = 0.066 (at node 7)
	maximum = 0.114 (at node 10)
Injected packet length average = 1
Accepted packet length average = 1
Total in-flight flits = 45 (0 measured)
latency change    = 1
throughput change = 1
Class 0:
Packet latency average = 21.9584
	minimum = 7
	maximum = 66
Network latency average = 21.9553
	minimum = 7
	maximum = 66
Slowest packet = 11546
Flit latency average = 21.9553
	minimum = 7
	maximum = 66
Slowest flit = 11546
Fragmentation average = 0
	minimum = 0
	maximum = 0
Injected packet rate average = 0.10175
	minimum = 0.086 (at node 4)
	maximum = 0.121 (at node 3)
Accepted packet rate average = 0.09925
	minimum = 0.084 (at node 7)
	maximum = 0.117 (at node 15)
Injected flit rate average = 0.10175
	minimum = 0.086 (at node 4)
	maximum = 0.121 (at node 3)
Accepted flit rate average= 0.09925
	minimum = 0.084 (at node 7)
	maximum = 0.117 (at node 15)
Injected packet length average = 1
Accepted packet length average = 1
Total in-flight flits = 40 (0 measured)
latency change    = 0.0418572
throughput change = 0.0390428
Class 0:
Packet latency average = 22.7812
	minimum = 7
	maximum = 76
Network latency average = 22.7812
	minimum = 7
	maximum = 76
Slowest packet = 12702
Flit latency average = 22.7812
	minimum = 7
	maximum = 76
Slowest flit = 12702
Fragmentation average = 0
	minimum = 0
	maximum = 0
Injected packet rate average = 0.098625
	minimum = 0.074 (at node 5)
	maximum = 0.13 (at node 4)
Accepted packet rate average = 0.097125
	minimum = 0.068 (at node 3)
	maximum = 0.124 (at node 11)
Injected flit rate average = 0.098625
	minimum = 0.074 (at node 5)
	maximum = 0.13 (at node 4)
Accepted flit rate average= 0.097125
	minimum = 0.068 (at node 3)
	maximum = 0.124 (at node 11)
Injected packet length average = 1
Accepted packet length average = 1
Total in-flight flits = 52 (0 measured)
latency change    = 0.0361162
throughput change = 0.021879
Warmed up ...Time used is 1500 cycles
Class 0:
Packet latency average = 22.3015
	minimum = 7
	maximum = 71
Network latency average = 22.3015
	minimum = 7
	maximum = 71
Slowest packet = 13520
Flit latency average = 22.9056
	minimum = 7
	maximum = 77
Slowest flit = 12970
Fragmentation average = 0
	minimum = 0
	maximum = 0
Injected packet rate average = 0.0985
	minimum = 0.082 (at node 5)
	maximum = 0.112 (at node 0)
Accepted packet rate average = 0.100625
	minimum = 0.082 (at node 2)
	maximum = 0.126 (at node 14)
Injected flit rate average = 0.0985
	minimum = 0.082 (at node 5)
	maximum = 0.112 (at node 0)
Accepted flit rate average= 0.100625
	minimum = 0.082 (at node 2)
	maximum = 0.126 (at node 14)
Injected packet length average = 1
Accepted packet length average = 1
Total in-flight flits = 35 (35 measured)
latency change    = 0.021512
throughput change = 0.0347826
Class 0:
Packet latency average = 21.9178
	minimum = 7
	maximum = 71
Network latency average = 21.9164
	minimum = 7
	maximum = 71
Slowest packet = 13520
Flit latency average = 22.2385
	minimum = 7
	maximum = 77
Slowest flit = 12970
Fragmentation average = 0
	minimum = 0
	maximum = 0
Injected packet rate average = 0.09775
	minimum = 0.084 (at node 5)
	maximum = 0.112 (at node 15)
Accepted packet rate average = 0.09825
	minimum = 0.083 (at node 15)
	maximum = 0.11 (at node 11)
Injected flit rate average = 0.09775
	minimum = 0.084 (at node 5)
	maximum = 0.112 (at node 15)
Accepted flit rate average= 0.09825
	minimum = 0.083 (at node 15)
	maximum = 0.11 (at node 11)
Injected packet length average = 1
Accepted packet length average = 1
Total in-flight flits = 44 (44 measured)
latency change    = 0.0175062
throughput change = 0.024173
Class 0:
Packet latency average = 22.3742
	minimum = 7
	maximum = 71
Network latency average = 22.3682
	minimum = 7
	maximum = 71
Slowest packet = 13520
Flit latency average = 22.5713
	minimum = 7
	maximum = 77
Slowest flit = 12970
Fragmentation average = 0
	minimum = 0
	maximum = 0
Injected packet rate average = 0.0985
	minimum = 0.0886667 (at node 4)
	maximum = 0.110667 (at node 3)
Accepted packet rate average = 0.0990417
	minimum = 0.0873333 (at node 5)
	maximum = 0.111333 (at node 14)
Injected flit rate average = 0.0985
	minimum = 0.0886667 (at node 4)
	maximum = 0.110667 (at node 3)
Accepted flit rate average= 0.0990417
	minimum = 0.0873333 (at node 5)
	maximum = 0.111333 (at node 14)
Injected packet length average = 1
Accepted packet length average = 1
Total in-flight flits = 39 (39 measured)
latency change    = 0.0203999
throughput change = 0.00799327
Draining all recorded packets ...
Draining remaining packets ...
Time taken is 3073 cycles
Class 0:
Packet latency average = 21.8106
	minimum = 7
	maximum = 59
Network latency average = 21.8106
	minimum = 7
	maximum = 59
Slowest packet = 15596
Flit latency average = 21.8106
	minimum = 7
	maximum = 59
Slowest flit = 15596
Fragmentation average = 0
	minimum = 0
	maximum = 0
Injected packet rate average = 0.09975
	minimum = 0.068 (at node 3)
	maximum = 0.12 (at node 0)
Accepted packet rate average = 0.096375
	minimum = 0.08 (at node 9)
	maximum = 0.114 (at node 5)
Injected flit rate average = 0.09975
	minimum = 0.068 (at node 3)
	maximum = 0.12 (at node 0)
Accepted flit rate average= 0.096375
	minimum = 0.08 (at node 9)
	maximum = 0.114 (at node 5)
Injected packet length average = 1
Accepted packet length average = 1
Total in-flight flits = 27 (0 measured)
latency change    = 1
throughput change = 1
Class 0:
Packet latency average = 22.8323
	minimum = 7
	maximum = 116
Network latency average = 22.8285
	minimum = 7
	maximum = 116
Slowest packet = 16872
Flit latency average = 22.8285
	minimum = 7
	maximum = 116
Slowest flit = 16872
Fragmentation average = 0
	minimum = 0
	maximum = 0
Injected packet rate average = 0.102313
	minimum = 0.077 (at node 3)
	maximum = 0.116 (at node 7)
Accepted packet rate average = 0.099875
	minimum = 0.078 (at node 9)
	maximum = 0.123 (at node 7)
Injected flit rate average = 0.102313
	minimum = 0.077 (at node 3)
	maximum = 0.116 (at node 7)
Accepted flit rate average= 0.099875
	minimum = 0.078 (at node 9)
	maximum = 0.123 (at node 7)
Injected packet length average = 1
Accepted packet length average = 1
Total in-flight flits = 39 (0 measured)
latency change    = 0.0447461
throughput change = 0.0350438
Class 0:
Packet latency average = 22.765
	minimum = 7
	maximum = 156
Network latency average = 22.7638
	minimum = 7
	maximum = 156
Slowest packet = 16833
Flit latency average = 22.7638
	minimum = 7
	maximum = 156
Slowest flit = 16833
Fragmentation average = 0
	minimum = 0
	maximum = 0
Injected packet rate average = 0.100125
	minimum = 0.084 (at node 0)
	maximum = 0.124 (at node 6)
Accepted packet rate average = 0.1
	minimum = 0.08 (at node 8)
	maximum = 0.124 (at node 14)
Injected flit rate average = 0.100125
	minimum = 0.084 (at node 0)
	maximum = 0.124 (at node 6)
Accepted flit rate average= 0.1
	minimum = 0.08 (at node 8)
	maximum = 0.124 (at node 14)
Injected packet length average = 1
Accepted packet length average = 1
Total in-flight flits = 40 (0 measured)
latency change    = 0.00295587
throughput change = 0.00125
Warmed up ...Time used is 1500 cycles
Class 0:
Packet latency average = 22.5141
	minimum = 7
	maximum = 61
Network latency average = 22.5116
	minimum = 7
	maximum = 61
Slowest packet = 18475
Flit latency average = 22.8924
	minimum = 7
	maximum = 81
Slowest flit = 17768
Fragmentation average = 0
	minimum = 0
	maximum = 0
Injected packet rate average = 0.102125
	minimum = 0.09 (at node 8)
	maximum = 0.122 (at node 9)
Accepted packet rate average = 0.10225
	minimum = 0.08 (at node 14)
	maximum = 0.116 (at node 3)
Injected flit rate average = 0.102125
	minimum = 0.09 (at node 8)
	maximum = 0.122 (at node 9)
Accepted flit rate average= 0.10225
	minimum = 0.08 (at node 14)
	maximum = 0.116 (at node 3)
Injected packet length average = 1
Accepted packet length average = 1
Total in-flight flits = 39 (39 measured)
latency change    = 0.0111424
throughput change = 0.0220049
Class 0:
Packet latency average = 22.4058
	minimum = 7
	maximum = 62
Network latency average = 22.404
	minimum = 7
	maximum = 62
Slowest packet = 18699
Flit latency average = 22.5955
	minimum = 7
	maximum = 81
Slowest flit = 17768
Fragmentation average = 0
	minimum = 0
	maximum = 0
Injected packet rate average = 0.102813
	minimum = 0.09 (at node 2)
	maximum = 0.117 (at node 14)
Accepted packet rate average = 0.103063
	minimum = 0.079 (at node 5)
	maximum = 0.116 (at node 0)
Injected flit rate average = 0.102813
	minimum = 0.09 (at node 2)
	maximum = 0.117 (at node 14)
Accepted flit rate average= 0.103063
	minimum = 0.079 (at node 5)
	maximum = 0.116 (at node 0)
Injected packet length average = 1
Accepted packet length average = 1
Total in-flight flits = 36 (36 measured)
latency change    = 0.00483341
throughput change = 0.00788357
Class 0:
Packet latency average = 22.1633
	minimum = 7
	maximum = 63
Network latency average = 22.16
	minimum = 7
	maximum = 63
Slowest packet = 19622
Flit latency average = 22.2928
	minimum = 7
	maximum = 81
Slowest flit = 17768
Fragmentation average = 0
	minimum = 0
	maximum = 0
Injected packet rate average = 0.101958
	minimum = 0.0933333 (at node 2)
	maximum = 0.110667 (at node 9)
Accepted packet rate average = 0.102167
	minimum = 0.082 (at node 5)
	maximum = 0.120667 (at node 7)
Injected flit rate average = 0.101958
	minimum = 0.0933333 (at node 2)
	maximum = 0.110667 (at node 9)
Accepted flit rate average= 0.102167
	minimum = 0.082 (at node 5)
	maximum = 0.120667 (at node 7)
Injected packet length average = 1
Accepted packet length average = 1
Total in-flight flits = 35 (35 measured)
latency change    = 0.0109411
throughput change = 0.00876835
Draining all recorded packets ...
Draining remaining packets ...
Time taken is 3069 cycles
Class 0:
Packet latency average = 22.9328
	minimum = 7
	maximum = 74
Network latency average = 22.9328
	minimum = 7
	maximum = 74
Slowest packet = 20777
Flit latency average = 22.9328
	minimum = 7
	maximum = 74
Slowest flit = 20777
Fragmentation average = 0
	minimum = 0
	maximum = 0
Injected packet rate average = 0.095
	minimum = 0.08 (at node 2)
	maximum = 0.112 (at node 5)
Accepted packet rate average = 0.08925
	minimum = 0.068 (at node 2)
	maximum = 0.12 (at node 13)
Injected flit rate average = 0.095
	minimum = 0.08 (at node 2)
	maximum = 0.112 (at node 5)
Accepted flit rate average= 0.08925
	minimum = 0.068 (at node 2)
	maximum = 0.12 (at node 13)
Injected packet length average = 1
Accepted packet length average = 1
Total in-flight flits = 46 (0 measured)
latency change    = 1
throughput change = 1
Class 0:
Packet latency average = 22.1922
	minimum = 7
	maximum = 74
Network latency average = 22.1902
	minimum = 7
	maximum = 74
Slowest packet = 20777
Flit latency average = 22.1902
	minimum = 7
	maximum = 74
Slowest flit = 20777
Fragmentation average = 0
	minimum = 0
	maximum = 0
Injected packet rate average = 0.0968125
	minimum = 0.085 (at node 11)
	maximum = 0.108 (at node 15)
Accepted packet rate average = 0.094625
	minimum = 0.073 (at node 2)
	maximum = 0.113 (at node 14)
Injected flit rate average = 0.0968125
	minimum = 0.085 (at node 11)
	maximum = 0.108 (at node 15)
Accepted flit rate average= 0.094625
	minimum = 0.073 (at node 2)
	maximum = 0.113 (at node 14)
Injected packet length average = 1
Accepted packet length average = 1
Total in-flight flits = 35 (0 measured)
latency change    = 0.0333706
throughput change = 0.0568032
Class 0:
Packet latency average = 22.3674
	minimum = 7
	maximum = 56
Network latency average = 22.3662
	minimum = 7
	maximum = 56
Slowest packet = 21920
Flit latency average = 22.3662
	minimum = 7
	maximum = 56
Slowest flit = 21920
Fragmentation average = 0
	minimum = 0
	maximum = 0
Injected packet rate average = 0.100125
	minimum = 0.076 (at node 0)
	maximum = 0.112 (at node 1)
Accepted packet rate average = 0.099
	minimum = 0.066 (at node 9)
	maximum = 0.136 (at node 15)
Injected flit rate average = 0.100125
	minimum = 0.076 (at node 0)
	maximum = 0.112 (at node 1)
Accepted flit rate average= 0.099
	minimum = 0.066 (at node 9)
	maximum = 0.136 (at node 15)
Injected packet length average = 1
Accepted packet length average = 1
Total in-flight flits = 44 (0 measured)
latency change    = 0.00783363
throughput change = 0.0441919
Warmed up ...Time used is 1500 cycles
Class 0:
Packet latency average = 21.5784
	minimum = 7
	maximum = 66
Network latency average = 21.5771
	minimum = 7
	maximum = 66
Slowest packet = 23192
Flit latency average = 21.9163
	minimum = 7
	maximum = 66
Slowest flit = 23192
Fragmentation average = 0
	minimum = 0
	maximum = 0
Injected packet rate average = 0.09575
	minimum = 0.08 (at node 4)
	maximum = 0.126 (at node 0)
Accepted packet rate average = 0.097125
	minimum = 0.082 (at node 10)
	maximum = 0.124 (at node 2)
Injected flit rate average = 0.09575
	minimum = 0.08 (at node 4)
	maximum = 0.126 (at node 0)
Accepted flit rate average= 0.097125
	minimum = 0.082 (at node 10)
	maximum = 0.124 (at node 2)
Injected packet length average = 1
Accepted packet length average = 1
Total in-flight flits = 33 (33 measured)
latency change    = 0.0365633
throughput change = 0.019305
Class 0:
Packet latency average = 22.1676
	minimum = 7
	maximum = 66
Network latency average = 22.1657
	minimum = 7
	maximum = 66
Slowest packet = 23192
Flit latency average = 22.3159
	minimum = 7
	maximum = 66
Slowest flit = 23192
Fragmentation average = 0
	minimum = 0
	maximum = 0
Injected packet rate average = 0.0989375
	minimum = 0.084 (at node 3)
	maximum = 0.12 (at node 11)
Accepted packet rate average = 0.0989375
	minimum = 0.084 (at node 6)
	maximum = 0.125 (at node 9)
Injected flit rate average = 0.0989375
	minimum = 0.084 (at node 3)
	maximum = 0.12 (at node 11)
Accepted flit rate average= 0.0989375
	minimum = 0.084 (at node 6)
	maximum = 0.125 (at node 9)
Injected packet length average = 1
Accepted packet length average = 1
Total in-flight flits = 44 (44 measured)
latency change    = 0.0265791
throughput change = 0.0183196
Class 0:
Packet latency average = 22.3717
	minimum = 7
	maximum = 81
Network latency average = 22.3675
	minimum = 7
	maximum = 81
Slowest packet = 24232
Flit latency average = 22.4626
	minimum = 7
	maximum = 81
Slowest flit = 24232
Fragmentation average = 0
	minimum = 0
	maximum = 0
Injected packet rate average = 0.100083
	minimum = 0.088 (at node 3)
	maximum = 0.112667 (at node 11)
Accepted packet rate average = 0.10025
	minimum = 0.0833333 (at node 3)
	maximum = 0.122 (at node 9)
Injected flit rate average = 0.100083
	minimum = 0.088 (at node 3)
	maximum = 0.112667 (at node 11)
Accepted flit rate average= 0.10025
	minimum = 0.0833333 (at node 3)
	maximum = 0.122 (at node 9)
Injected packet length average = 1
Accepted packet length average = 1
Total in-flight flits = 40 (40 measured)
latency change    = 0.00912212
throughput change = 0.0130923
Draining all recorded packets ...
Draining remaining packets ...
Time taken is 3065 cycles
Class 0:
Packet latency average = 21.6663
	minimum = 7
	maximum = 68
Network latency average = 21.6552
	minimum = 7
	maximum = 68
Slowest packet = 25792
Flit latency average = 21.6552
	minimum = 7
	maximum = 68
Slowest flit = 25792
Fragmentation average = 0
	minimum = 0
	maximum = 0
Injected packet rate average = 0.1055
	minimum = 0.082 (at node 13)
	maximum = 0.124 (at node 7)
Accepted packet rate average = 0.1015
	minimum = 0.072 (at node 0)
	maximum = 0.128 (at node 13)
Injected flit rate average = 0.1055
	minimum = 0.082 (at node 13)
	maximum = 0.124 (at node 7)
Accepted flit rate average= 0.1015
	minimum = 0.072 (at node 0)
	maximum = 0.128 (at node 13)
Injected packet length average = 1
Accepted packet length average = 1
Total in-flight flits = 32 (0 measured)
latency change    = 1
throughput change = 1
Class 0:
Packet latency average = 22.1805
	minimum = 7
	maximum = 70
Network latency average = 22.1738
	minimum = 7
	maximum = 70
Slowest packet = 26504
Flit latency average = 22.1738
	minimum = 7
	maximum = 70
Slowest flit = 26504
Fragmentation average = 0
	minimum = 0
	maximum = 0
Injected packet rate average = 0.103813
	minimum = 0.092 (at node 13)
	maximum = 0.115 (at node 5)
Accepted packet rate average = 0.101437
	minimum = 0.087 (at node 3)
	maximum = 0.116 (at node 9)
Injected flit rate average = 0.103813
	minimum = 0.092 (at node 13)
	maximum = 0.115 (at node 5)
Accepted flit rate average= 0.101437
	minimum = 0.087 (at node 3)
	maximum = 0.116 (at node 9)
Injected packet length average = 1
Accepted packet length average = 1
Total in-flight flits = 38 (0 measured)
latency change    = 0.0231858
throughput change = 0.000616143
Class 0:
Packet latency average = 21.9841
	minimum = 7
	maximum = 73
Network latency average = 21.9708
	minimum = 7
	maximum = 73
Slowest packet = 26737
Flit latency average = 21.9708
	minimum = 7
	maximum = 73
Slowest flit = 26737
Fragmentation average = 0
	minimum = 0
	maximum = 0
Injected packet rate average = 0.0935
	minimum = 0.08 (at node 5)
	maximum = 0.118 (at node 8)
Accepted packet rate average = 0.09425
	minimum = 0.068 (at node 8)
	maximum = 0.108 (at node 15)
Injected flit rate average = 0.0935
	minimum = 0.08 (at node 5)
	maximum = 0.118 (at node 8)
Accepted flit rate average= 0.09425
	minimum = 0.068 (at node 8)
	maximum = 0.108 (at node 15)
Injected packet length average = 1
Accepted packet length average = 1
Total in-flight flits = 32 (0 measured)
latency change    = 0.00893578
throughput change = 0.0762599
Warmed up ...Time used is 1500 cycles
Class 0:
Packet latency average = 21.7111
	minimum = 7
	maximum = 60
Network latency average = 21.7084
	minimum = 7
	maximum = 60
Slowest packet = 28149
Flit latency average = 21.862
	minimum = 7
	maximum = 60
Slowest flit = 28149
Fragmentation average = 0
	minimum = 0
	maximum = 0
Injected packet rate average = 0.099875
	minimum = 0.086 (at node 0)
	maximum = 0.124 (at node 4)
Accepted packet rate average = 0.09875
	minimum = 0.066 (at node 4)
	maximum = 0.132 (at node 14)
Injected flit rate average = 0.099875
	minimum = 0.086 (at node 0)
	maximum = 0.124 (at node 4)
Accepted flit rate average= 0.09875
	minimum = 0.066 (at node 4)
	maximum = 0.132 (at node 14)
Injected packet length average = 1
Accepted packet length average = 1
Total in-flight flits = 41 (41 measured)
latency change    = 0.0125744
throughput change = 0.0455696
Class 0:
Packet latency average = 22.6598
	minimum = 7
	maximum = 75
Network latency average = 22.6554
	minimum = 7
	maximum = 75
Slowest packet = 28865
Flit latency average = 22.7114
	minimum = 7
	maximum = 75
Slowest flit = 28865
Fragmentation average = 0
	minimum = 0
	maximum = 0
Injected packet rate average = 0.1015
	minimum = 0.091 (at node 3)
	maximum = 0.117 (at node 4)
Accepted packet rate average = 0.101562
	minimum = 0.081 (at node 2)
	maximum = 0.123 (at node 6)
Injected flit rate average = 0.1015
	minimum = 0.091 (at node 3)
	maximum = 0.117 (at node 4)
Accepted flit rate average= 0.101562
	minimum = 0.081 (at node 2)
	maximum = 0.123 (at node 6)
Injected packet length average = 1
Accepted packet length average = 1
Total in-flight flits = 31 (31 measured)
latency change    = 0.0418663
throughput change = 0.0276923
Class 0:
Packet latency average = 22.4396
	minimum = 7
	maximum = 75
Network latency average = 22.4164
	minimum = 7
	maximum = 75
Slowest packet = 28865
Flit latency average = 22.4575
	minimum = 7
	maximum = 75
Slowest flit = 28865
Fragmentation average = 0
	minimum = 0
	maximum = 0
Injected packet rate average = 0.100083
	minimum = 0.0893333 (at node 3)
	maximum = 0.114 (at node 4)
Accepted packet rate average = 0.1
	minimum = 0.08 (at node 13)
	maximum = 0.117333 (at node 0)
Injected flit rate average = 0.100083
	minimum = 0.0893333 (at node 3)
	maximum = 0.114 (at node 4)
Accepted flit rate average= 0.1
	minimum = 0.08 (at node 13)
	maximum = 0.117333 (at node 0)
Injected packet length average = 1
Accepted packet length average = 1
Total in-flight flits = 34 (34 measured)
latency change    = 0.00981077
throughput change = 0.015625
Draining all recorded packets ...
Draining remaining packets ...
Time taken is 3078 cycles
Class 0:
Packet latency average = 21.4351
	minimum = 7
	maximum = 59
Network latency average = 21.4351
	minimum = 7
	maximum = 59
Slowest packet = 30148
Flit latency average = 21.4351
	minimum = 7
	maximum = 59
Slowest flit = 30148
Fragmentation average = 0
	minimum = 0
	maximum = 0
Injected packet rate average = 0.0975
	minimum = 0.068 (at node 6)
	maximum = 0.114 (at node 13)
Accepted packet rate average = 0.093375
	minimum = 0.066 (at node 0)
	maximum = 0.112 (at node 12)
Injected flit rate average = 0.0975
	minimum = 0.068 (at node 6)
	maximum = 0.114 (at node 13)
Accepted flit rate average= 0.093375
	minimum = 0.066 (at node 0)
	maximum = 0.112 (at node 12)
Injected packet length average = 1
Accepted packet length average = 1
Total in-flight flits = 33 (0 measured)
latency change    = 1
throughput change = 1
Class 0:
Packet latency average = 21.6124
	minimum = 7
	maximum = 81
Network latency average = 21.6084
	minimum = 7
	maximum = 81
Slowest packet = 31214
Flit latency average = 21.6084
	minimum = 7
	maximum = 81
Slowest flit = 31214
Fragmentation average = 0
	minimum = 0
	maximum = 0
Injected packet rate average = 0.09725
	minimum = 0.077 (at node 6)
	maximum = 0.116 (at node 12)
Accepted packet rate average = 0.095125
	minimum = 0.079 (at node 5)
	maximum = 0.104 (at node 15)
Injected flit rate average = 0.09725
	minimum = 0.077 (at node 6)
	maximum = 0.116 (at node 12)
Accepted flit rate average= 0.095125
	minimum = 0.079 (at node 5)
	maximum = 0.104 (at node 15)
Injected packet length average = 1
Accepted packet length average = 1
Total in-flight flits = 34 (0 measured)
latency change    = 0.00820265
throughput change = 0.0183968
Class 0:
Packet latency average = 21.7566
	minimum = 7
	maximum = 68
Network latency average = 21.7566
	minimum = 7
	maximum = 68
Slowest packet = 31698
Flit latency average = 21.7566
	minimum = 7
	maximum = 68
Slowest flit = 31698
Fragmentation average = 0
	minimum = 0
	maximum = 0
Injected packet rate average = 0.099375
	minimum = 0.078 (at node 3)
	maximum = 0.126 (at node 4)
Accepted packet rate average = 0.099125
	minimum = 0.064 (at node 14)
	maximum = 0.13 (at node 2)
Injected flit rate average = 0.099375
	minimum = 0.078 (at node 3)
	maximum = 0.126 (at node 4)
Accepted flit rate average= 0.099125
	minimum = 0.064 (at node 14)
	maximum = 0.13 (at node 2)
Injected packet length average = 1
Accepted packet length average = 1
Total in-flight flits = 36 (0 measured)
latency change    = 0.00663101
throughput change = 0.0403531
Warmed up ...Time used is 1500 cycles
Class 0:
Packet latency average = 21.6649
	minimum = 7
	maximum = 61
Network latency average = 21.6608
	minimum = 7
	maximum = 61
Slowest packet = 32468
Flit latency average = 21.7307
	minimum = 7
	maximum = 61
Slowest flit = 32468
Fragmentation average = 0
	minimum = 0
	maximum = 0
Injected packet rate average = 0.097125
	minimum = 0.072 (at node 13)
	maximum = 0.124 (at node 11)
Accepted packet rate average = 0.097
	minimum = 0.074 (at node 11)
	maximum = 0.118 (at node 9)
Injected flit rate average = 0.097125
	minimum = 0.072 (at node 13)
	maximum = 0.124 (at node 11)
Accepted flit rate average= 0.097
	minimum = 0.074 (at node 11)
	maximum = 0.118 (at node 9)
Injected packet length average = 1
Accepted packet length average = 1
Total in-flight flits = 37 (37 measured)
latency change    = 0.00423522
throughput change = 0.0219072
Class 0:
Packet latency average = 21.9861
	minimum = 7
	maximum = 70
Network latency average = 21.9841
	minimum = 7
	maximum = 70
Slowest packet = 33825
Flit latency average = 22.0116
	minimum = 7
	maximum = 70
Slowest flit = 33825
Fragmentation average = 0
	minimum = 0
	maximum = 0
Injected packet rate average = 0.09675
	minimum = 0.074 (at node 13)
	maximum = 0.114 (at node 3)
Accepted packet rate average = 0.0968125
	minimum = 0.083 (at node 2)
	maximum = 0.117 (at node 9)
Injected flit rate average = 0.09675
	minimum = 0.074 (at node 13)
	maximum = 0.114 (at node 3)
Accepted flit rate average= 0.0968125
	minimum = 0.083 (at node 2)
	maximum = 0.117 (at node 9)
Injected packet length average = 1
Accepted packet length average = 1
Total in-flight flits = 35 (35 measured)
latency change    = 0.0146117
throughput change = 0.00193673
Class 0:
Packet latency average = 21.9533
	minimum = 7
	maximum = 70
Network latency average = 21.952
	minimum = 7
	maximum = 70
Slowest packet = 33825
Flit latency average = 21.9706
	minimum = 7
	maximum = 70
Slowest flit = 33825
Fragmentation average = 0
	minimum = 0
	maximum = 0
Injected packet rate average = 0.0980833
	minimum = 0.0833333 (at node 13)
	maximum = 0.112 (at node 11)
Accepted packet rate average = 0.097875
	minimum = 0.078 (at node 2)
	maximum = 0.116667 (at node 14)
Injected flit rate average = 0.0980833
	minimum = 0.0833333 (at node 13)
	maximum = 0.112 (at node 11)
Accepted flit rate average= 0.097875
	minimum = 0.078 (at node 2)
	maximum = 0.116667 (at node 14)
Injected packet length average = 1
Accepted packet length average = 1
Total in-flight flits = 41 (41 measured)
latency change    = 0.00149467
throughput change = 0.0108557
Draining all recorded packets ...
Draining remaining packets ...
Time taken is 3064 cycles
Class 0:
Packet latency average = 22.6645
	minimum = 7
	maximum = 67
Network latency average = 22.6645
	minimum = 7
	maximum = 67
Slowest packet = 34846
Flit latency average = 22.6645
	minimum = 7
	maximum = 67
Slowest flit = 34846
Fragmentation average = 0
	minimum = 0
	maximum = 0
Injected packet rate average = 0.099
	minimum = 0.078 (at node 3)
	maximum = 0.116 (at node 1)
Accepted packet rate average = 0.095
	minimum = 0.076 (at node 10)
	maximum = 0.116 (at node 3)
Injected flit rate average = 0.099
	minimum = 0.078 (at node 3)
	maximum = 0.116 (at node 1)
Accepted flit rate average= 0.095
	minimum = 0.076 (at node 10)
	maximum = 0.116 (at node 3)
Injected packet length average = 1
Accepted packet length average = 1
Total in-flight flits = 32 (0 measured)
latency change    = 1
throughput change = 1
Class 0:
Packet latency average = 23.516
	minimum = 7
	maximum = 114
Network latency average = 23.3707
	minimum = 7
	maximum = 114
Slowest packet = 36028
Flit latency average = 23.3707
	minimum = 7
	maximum = 114
Slowest flit = 36028
Fragmentation average = 0
	minimum = 0
	maximum = 0
Injected packet rate average = 0.101875
	minimum = 0.088 (at node 9)
	maximum = 0.123 (at node 1)
Accepted packet rate average = 0.0993125
	minimum = 0.081 (at node 5)
	maximum = 0.113 (at node 15)
Injected flit rate average = 0.101875
	minimum = 0.088 (at node 9)
	maximum = 0.123 (at node 1)
Accepted flit rate average= 0.0993125
	minimum = 0.081 (at node 5)
	maximum = 0.113 (at node 15)
Injected packet length average = 1
Accepted packet length average = 1
Total in-flight flits = 42 (0 measured)
latency change    = 0.0362125
throughput change = 0.0434235
Class 0:
Packet latency average = 21.8333
	minimum = 7
	maximum = 56
Network latency average = 21.8233
	minimum = 7
	maximum = 56
Slowest packet = 36350
Flit latency average = 21.8233
	minimum = 7
	maximum = 56
Slowest flit = 36350
Fragmentation average = 0
	minimum = 0
	maximum = 0
Injected packet rate average = 0.10025
	minimum = 0.078 (at node 0)
	maximum = 0.116 (at node 5)
Accepted packet rate average = 0.09975
	minimum = 0.082 (at node 7)
	maximum = 0.124 (at node 3)
Injected flit rate average = 0.10025
	minimum = 0.078 (at node 0)
	maximum = 0.116 (at node 5)
Accepted flit rate average= 0.09975
	minimum = 0.082 (at node 7)
	maximum = 0.124 (at node 3)
Injected packet length average = 1
Accepted packet length average = 1
Total in-flight flits = 45 (0 measured)
latency change    = 0.0770709
throughput change = 0.00438596
Warmed up ...Time used is 1500 cycles
Class 0:
Packet latency average = 21.8296
	minimum = 7
	maximum = 65
Network latency average = 21.8296
	minimum = 7
	maximum = 65
Slowest packet = 37455
Flit latency average = 22.1118
	minimum = 7
	maximum = 65
Slowest flit = 37455
Fragmentation average = 0
	minimum = 0
	maximum = 0
Injected packet rate average = 0.09725
	minimum = 0.072 (at node 2)
	maximum = 0.116 (at node 3)
Accepted packet rate average = 0.0995
	minimum = 0.082 (at node 7)
	maximum = 0.12 (at node 14)
Injected flit rate average = 0.09725
	minimum = 0.072 (at node 2)
	maximum = 0.116 (at node 3)
Accepted flit rate average= 0.0995
	minimum = 0.082 (at node 7)
	maximum = 0.12 (at node 14)
Injected packet length average = 1
Accepted packet length average = 1
Total in-flight flits = 27 (27 measured)
latency change    = 0.000172827
throughput change = 0.00251256
Class 0:
Packet latency average = 21.671
	minimum = 7
	maximum = 65
Network latency average = 21.6684
	minimum = 7
	maximum = 65
Slowest packet = 37455
Flit latency average = 21.8143
	minimum = 7
	maximum = 65
Slowest flit = 37455
Fragmentation average = 0
	minimum = 0
	maximum = 0
Injected packet rate average = 0.0993125
	minimum = 0.073 (at node 2)
	maximum = 0.117 (at node 12)
Accepted packet rate average = 0.0993125
	minimum = 0.087 (at node 7)
	maximum = 0.118 (at node 14)
Injected flit rate average = 0.0993125
	minimum = 0.073 (at node 2)
	maximum = 0.117 (at node 12)
Accepted flit rate average= 0.0993125
	minimum = 0.087 (at node 7)
	maximum = 0.118 (at node 14)
Injected packet length average = 1
Accepted packet length average = 1
Total in-flight flits = 45 (45 measured)
latency change    = 0.00731744
throughput change = 0.00188798
Class 0:
Packet latency average = 21.8112
	minimum = 7
	maximum = 65
Network latency average = 21.8069
	minimum = 7
	maximum = 65
Slowest packet = 37455
Flit latency average = 21.9015
	minimum = 7
	maximum = 65
Slowest flit = 37455
Fragmentation average = 0
	minimum = 0
	maximum = 0
Injected packet rate average = 0.099125
	minimum = 0.086 (at node 5)
	maximum = 0.109333 (at node 12)
Accepted packet rate average = 0.0994167
	minimum = 0.0853333 (at node 13)
	maximum = 0.111333 (at node 4)
Injected flit rate average = 0.099125
	minimum = 0.086 (at node 5)
	maximum = 0.109333 (at node 12)
Accepted flit rate average= 0.0994167
	minimum = 0.0853333 (at node 13)
	maximum = 0.111333 (at node 4)
Injected packet length average = 1
Accepted packet length average = 1
Total in-flight flits = 38 (38 measured)
latency change    = 0.00642823
throughput change = 0.00104778
Draining all recorded packets ...
Draining remaining packets ...
Time taken is 3073 cycles
Class 0:
Packet latency average = 22.109
	minimum = 7
	maximum = 63
Network latency average = 22.1036
	minimum = 7
	maximum = 63
Slowest packet = 40311
Flit latency average = 22.1036
	minimum = 7
	maximum = 63
Slowest flit = 40311
Fragmentation average = 0
	minimum = 0
	maximum = 0
Injected packet rate average = 0.09825
	minimum = 0.076 (at node 5)
	maximum = 0.11 (at node 0)
Accepted packet rate average = 0.092875
	minimum = 0.074 (at node 0)
	maximum = 0.118 (at node 10)
Injected flit rate average = 0.09825
	minimum = 0.076 (at node 5)
	maximum = 0.11 (at node 0)
Accepted flit rate average= 0.092875
	minimum = 0.074 (at node 0)
	maximum = 0.118 (at node 10)
Injected packet length average = 1
Accepted packet length average = 1
Total in-flight flits = 43 (0 measured)
latency change    = 1
throughput change = 1
Class 0:
Packet latency average = 21.6671
	minimum = 7
	maximum = 63
Network latency average = 21.6645
	minimum = 7
	maximum = 63
Slowest packet = 40311
Flit latency average = 21.6645
	minimum = 7
	maximum = 63
Slowest flit = 40311
Fragmentation average = 0
	minimum = 0
	maximum = 0
Injected packet rate average = 0.0980625
	minimum = 0.087 (at node 5)
	maximum = 0.116 (at node 8)
Accepted packet rate average = 0.0955625
	minimum = 0.078 (at node 13)
	maximum = 0.114 (at node 10)
Injected flit rate average = 0.0980625
	minimum = 0.087 (at node 5)
	maximum = 0.116 (at node 8)
Accepted flit rate average= 0.0955625
	minimum = 0.078 (at node 13)
	maximum = 0.114 (at node 10)
Injected packet length average = 1
Accepted packet length average = 1
Total in-flight flits = 40 (0 measured)
latency change    = 0.0203957
throughput change = 0.028123
Class 0:
Packet latency average = 21.8237
	minimum = 7
	maximum = 58
Network latency average = 21.8237
	minimum = 7
	maximum = 58
Slowest packet = 41871
Flit latency average = 21.8237
	minimum = 7
	maximum = 58
Slowest flit = 41871
Fragmentation average = 0
	minimum = 0
	maximum = 0
Injected packet rate average = 0.098375
	minimum = 0.068 (at node 1)
	maximum = 0.122 (at node 11)
Accepted packet rate average = 0.09925
	minimum = 0.074 (at node 8)
	maximum = 0.136 (at node 3)
Injected flit rate average = 0.098375
	minimum = 0.068 (at node 1)
	maximum = 0.122 (at node 11)
Accepted flit rate average= 0.09925
	minimum = 0.074 (at node 8)
	maximum = 0.136 (at node 3)
Injected packet length average = 1
Accepted packet length average = 1
Total in-flight flits = 33 (0 measured)
latency change    = 0.00717454
throughput change = 0.0371537
Warmed up ...Time used is 1500 cycles
Class 0:
Packet latency average = 21.6709
	minimum = 7
	maximum = 54
Network latency average = 21.6681
	minimum = 7
	maximum = 54
Slowest packet = 42341
Flit latency average = 21.8575
	minimum = 7
	maximum = 54
Slowest flit = 41931
Fragmentation average = 0
	minimum = 0
	maximum = 0
Injected packet rate average = 0.094875
	minimum = 0.072 (at node 2)
	maximum = 0.118 (at node 7)
Accepted packet rate average = 0.093
	minimum = 0.066 (at node 7)
	maximum = 0.118 (at node 6)
Injected flit rate average = 0.094875
	minimum = 0.072 (at node 2)
	maximum = 0.118 (at node 7)
Accepted flit rate average= 0.093
	minimum = 0.066 (at node 7)
	maximum = 0.118 (at node 6)
Injected packet length average = 1
Accepted packet length average = 1
Total in-flight flits = 48 (48 measured)
latency change    = 0.00705054
throughput change = 0.0672043
Class 0:
Packet latency average = 22.4952
	minimum = 7
	maximum = 86
Network latency average = 22.4556
	minimum = 7
	maximum = 86
Slowest packet = 42825
Flit latency average = 22.5275
	minimum = 7
	maximum = 86
Slowest flit = 42825
Fragmentation average = 0
	minimum = 0
	maximum = 0
Injected packet rate average = 0.0999375
	minimum = 0.083 (at node 3)
	maximum = 0.115 (at node 8)
Accepted packet rate average = 0.099875
	minimum = 0.086 (at node 7)
	maximum = 0.124 (at node 6)
Injected flit rate average = 0.0999375
	minimum = 0.083 (at node 3)
	maximum = 0.115 (at node 8)
Accepted flit rate average= 0.099875
	minimum = 0.086 (at node 7)
	maximum = 0.124 (at node 6)
Injected packet length average = 1
Accepted packet length average = 1
Total in-flight flits = 34 (34 measured)
latency change    = 0.0366443
throughput change = 0.068836
Class 0:
Packet latency average = 22.1336
	minimum = 7
	maximum = 86
Network latency average = 22.1075
	minimum = 7
	maximum = 86
Slowest packet = 42825
Flit latency average = 22.1601
	minimum = 7
	maximum = 86
Slowest flit = 42825
Fragmentation average = 0
	minimum = 0
	maximum = 0
Injected packet rate average = 0.100292
	minimum = 0.084 (at node 3)
	maximum = 0.113333 (at node 14)
Accepted packet rate average = 0.100208
	minimum = 0.0893333 (at node 7)
	maximum = 0.114 (at node 6)
Injected flit rate average = 0.100292
	minimum = 0.084 (at node 3)
	maximum = 0.113333 (at node 14)
Accepted flit rate average= 0.100208
	minimum = 0.0893333 (at node 7)
	maximum = 0.114 (at node 6)
Injected packet length average = 1
Accepted packet length average = 1
Total in-flight flits = 35 (35 measured)
latency change    = 0.0163355
throughput change = 0.0033264
Class 0:
Packet latency average = 22.4935
	minimum = 7
	maximum = 86
Network latency average = 22.4707
	minimum = 7
	maximum = 86
Slowest packet = 42825
Flit latency average = 22.5066
	minimum = 7
	maximum = 86
Slowest flit = 42825
Fragmentation average = 0
	minimum = 0
	maximum = 0
Injected packet rate average = 0.0997813
	minimum = 0.084 (at node 3)
	maximum = 0.1115 (at node 8)
Accepted packet rate average = 0.09975
	minimum = 0.0875 (at node 7)
	maximum = 0.112 (at node 1)
Injected flit rate average = 0.0997813
	minimum = 0.084 (at node 3)
	maximum = 0.1115 (at node 8)
Accepted flit rate average= 0.09975
	minimum = 0.0875 (at node 7)
	maximum = 0.112 (at node 1)
Injected packet length average = 1
Accepted packet length average = 1
Total in-flight flits = 34 (34 measured)
latency change    = 0.0159988
throughput change = 0.00459482
Class 0:
Packet latency average = 22.566
	minimum = 7
	maximum = 86
Network latency average = 22.548
	minimum = 7
	maximum = 86
Slowest packet = 42825
Flit latency average = 22.5758
	minimum = 7
	maximum = 86
Slowest flit = 42825
Fragmentation average = 0
	minimum = 0
	maximum = 0
Injected packet rate average = 0.1009
	minimum = 0.088 (at node 3)
	maximum = 0.1136 (at node 15)
Accepted packet rate average = 0.1006
	minimum = 0.09 (at node 3)
	maximum = 0.1132 (at node 9)
Injected flit rate average = 0.1009
	minimum = 0.088 (at node 3)
	maximum = 0.1136 (at node 15)
Accepted flit rate average= 0.1006
	minimum = 0.09 (at node 3)
	maximum = 0.1132 (at node 9)
Injected packet length average = 1
Accepted packet length average = 1
Total in-flight flits = 45 (45 measured)
latency change    = 0.00321337
throughput change = 0.0084493
Draining all recorded packets ...
Draining remaining packets ...
Time taken is 4077 cycles
Class 0:
Packet latency average = 22.1206
	minimum = 7
	maximum = 83
Network latency average = 22.1166
	minimum = 7
	maximum = 83
Slowest packet = 46362
Flit latency average = 22.1166
	minimum = 7
	maximum = 83
Slowest flit = 46362
Fragmentation average = 0
	minimum = 0
	maximum = 0
Injected packet rate average = 0.102375
	minimum = 0.084 (at node 3)
	maximum = 0.132 (at node 11)
Accepted packet rate average = 0.095375
	minimum = 0.064 (at node 8)
	maximum = 0.128 (at node 6)
Injected flit rate average = 0.102375
	minimum = 0.084 (at node 3)
	maximum = 0.132 (at node 11)
Accepted flit rate average= 0.095375
	minimum = 0.064 (at node 8)
	maximum = 0.128 (at node 6)
Injected packet length average = 1
Accepted packet length average = 1
Total in-flight flits = 56 (0 measured)
latency change    = 1
throughput change = 1
Class 0:
Packet latency average = 22.816
	minimum = 7
	maximum = 83
Network latency average = 22.8086
	minimum = 7
	maximum = 83
Slowest packet = 46362
Flit latency average = 22.8086
	minimum = 7
	maximum = 83
Slowest flit = 46362
Fragmentation average = 0
	minimum = 0
	maximum = 0
Injected packet rate average = 0.10375
	minimum = 0.09 (at node 13)
	maximum = 0.12 (at node 15)
Accepted packet rate average = 0.101562
	minimum = 0.07 (at node 15)
	maximum = 0.124 (at node 0)
Injected flit rate average = 0.10375
	minimum = 0.09 (at node 13)
	maximum = 0.12 (at node 15)
Accepted flit rate average= 0.101562
	minimum = 0.07 (at node 15)
	maximum = 0.124 (at node 0)
Injected packet length average = 1
Accepted packet length average = 1
Total in-flight flits = 35 (0 measured)
latency change    = 0.0304796
throughput change = 0.0609231
Class 0:
Packet latency average = 21.8595
	minimum = 7
	maximum = 66
Network latency average = 21.8582
	minimum = 7
	maximum = 66
Slowest packet = 48401
Flit latency average = 21.8582
	minimum = 7
	maximum = 66
Slowest flit = 48401
Fragmentation average = 0
	minimum = 0
	maximum = 0
Injected packet rate average = 0.099
	minimum = 0.074 (at node 0)
	maximum = 0.124 (at node 12)
Accepted packet rate average = 0.09875
	minimum = 0.078 (at node 3)
	maximum = 0.142 (at node 4)
Injected flit rate average = 0.099
	minimum = 0.074 (at node 0)
	maximum = 0.124 (at node 12)
Accepted flit rate average= 0.09875
	minimum = 0.078 (at node 3)
	maximum = 0.142 (at node 4)
Injected packet length average = 1
Accepted packet length average = 1
Total in-flight flits = 37 (0 measured)
latency change    = 0.043757
throughput change = 0.028481
Warmed up ...Time used is 1500 cycles
Class 0:
Packet latency average = 22.2853
	minimum = 7
	maximum = 83
Network latency average = 22.2841
	minimum = 7
	maximum = 83
Slowest packet = 48823
Flit latency average = 22.584
	minimum = 7
	maximum = 83
Slowest flit = 48823
Fragmentation average = 0
	minimum = 0
	maximum = 0
Injected packet rate average = 0.10175
	minimum = 0.078 (at node 6)
	maximum = 0.128 (at node 4)
Accepted packet rate average = 0.101875
	minimum = 0.074 (at node 8)
	maximum = 0.118 (at node 12)
Injected flit rate average = 0.10175
	minimum = 0.078 (at node 6)
	maximum = 0.128 (at node 4)
Accepted flit rate average= 0.101875
	minimum = 0.074 (at node 8)
	maximum = 0.118 (at node 12)
Injected packet length average = 1
Accepted packet length average = 1
Total in-flight flits = 36 (36 measured)
latency change    = 0.0191091
throughput change = 0.0306748
Class 0:
Packet latency average = 22.3848
	minimum = 7
	maximum = 83
Network latency average = 22.3817
	minimum = 7
	maximum = 83
Slowest packet = 48823
Flit latency average = 22.5294
	minimum = 7
	maximum = 83
Slowest flit = 48823
Fragmentation average = 0
	minimum = 0
	maximum = 0
Injected packet rate average = 0.101437
	minimum = 0.087 (at node 6)
	maximum = 0.114 (at node 4)
Accepted packet rate average = 0.101875
	minimum = 0.087 (at node 8)
	maximum = 0.116 (at node 14)
Injected flit rate average = 0.101437
	minimum = 0.087 (at node 6)
	maximum = 0.114 (at node 4)
Accepted flit rate average= 0.101875
	minimum = 0.087 (at node 8)
	maximum = 0.116 (at node 14)
Injected packet length average = 1
Accepted packet length average = 1
Total in-flight flits = 30 (30 measured)
latency change    = 0.00444326
throughput change = 0
Class 0:
Packet latency average = 22.444
	minimum = 7
	maximum = 83
Network latency average = 22.4318
	minimum = 7
	maximum = 83
Slowest packet = 48823
Flit latency average = 22.5306
	minimum = 7
	maximum = 83
Slowest flit = 48823
Fragmentation average = 0
	minimum = 0
	maximum = 0
Injected packet rate average = 0.100917
	minimum = 0.0846667 (at node 7)
	maximum = 0.119333 (at node 4)
Accepted packet rate average = 0.100833
	minimum = 0.0826667 (at node 2)
	maximum = 0.120667 (at node 14)
Injected flit rate average = 0.100917
	minimum = 0.0846667 (at node 7)
	maximum = 0.119333 (at node 4)
Accepted flit rate average= 0.100833
	minimum = 0.0826667 (at node 2)
	maximum = 0.120667 (at node 14)
Injected packet length average = 1
Accepted packet length average = 1
Total in-flight flits = 39 (39 measured)
latency change    = 0.00263633
throughput change = 0.0103306
Draining all recorded packets ...
Draining remaining packets ...
Time taken is 3080 cycles
Class 0:
Packet latency average = 21.5412
	minimum = 7
	maximum = 56
Network latency average = 21.5372
	minimum = 7
	maximum = 56
Slowest packet = 51348
Flit latency average = 21.5372
	minimum = 7
	maximum = 56
Slowest flit = 51348
Fragmentation average = 0
	minimum = 0
	maximum = 0
Injected packet rate average = 0.09775
	minimum = 0.076 (at node 14)
	maximum = 0.12 (at node 10)
Accepted packet rate average = 0.094
	minimum = 0.066 (at node 1)
	maximum = 0.112 (at node 10)
Injected flit rate average = 0.09775
	minimum = 0.076 (at node 14)
	maximum = 0.12 (at node 10)
Accepted flit rate average= 0.094
	minimum = 0.066 (at node 1)
	maximum = 0.112 (at node 10)
Injected packet length average = 1
Accepted packet length average = 1
Total in-flight flits = 30 (0 measured)
latency change    = 1
throughput change = 1
Class 0:
Packet latency average = 21.5
	minimum = 7
	maximum = 57
Network latency average = 21.4956
	minimum = 7
	maximum = 57
Slowest packet = 52189
Flit latency average = 21.4956
	minimum = 7
	maximum = 57
Slowest flit = 52189
Fragmentation average = 0
	minimum = 0
	maximum = 0
Injected packet rate average = 0.100625
	minimum = 0.084 (at node 4)
	maximum = 0.116 (at node 2)
Accepted packet rate average = 0.0985
	minimum = 0.08 (at node 1)
	maximum = 0.121 (at node 10)
Injected flit rate average = 0.100625
	minimum = 0.084 (at node 4)
	maximum = 0.116 (at node 2)
Accepted flit rate average= 0.0985
	minimum = 0.08 (at node 1)
	maximum = 0.121 (at node 10)
Injected packet length average = 1
Accepted packet length average = 1
Total in-flight flits = 34 (0 measured)
latency change    = 0.00191737
throughput change = 0.0456853
Class 0:
Packet latency average = 22.4435
	minimum = 7
	maximum = 68
Network latency average = 22.4411
	minimum = 7
	maximum = 68
Slowest packet = 52575
Flit latency average = 22.4411
	minimum = 7
	maximum = 68
Slowest flit = 52575
Fragmentation average = 0
	minimum = 0
	maximum = 0
Injected packet rate average = 0.103125
	minimum = 0.076 (at node 5)
	maximum = 0.126 (at node 0)
Accepted packet rate average = 0.104
	minimum = 0.084 (at node 5)
	maximum = 0.134 (at node 13)
Injected flit rate average = 0.103125
	minimum = 0.076 (at node 5)
	maximum = 0.126 (at node 0)
Accepted flit rate average= 0.104
	minimum = 0.084 (at node 5)
	maximum = 0.134 (at node 13)
Injected packet length average = 1
Accepted packet length average = 1
Total in-flight flits = 27 (0 measured)
latency change    = 0.0420393
throughput change = 0.0528846
Warmed up ...Time used is 1500 cycles
Class 0:
Packet latency average = 22.3037
	minimum = 7
	maximum = 64
Network latency average = 22.2757
	minimum = 7
	maximum = 64
Slowest packet = 54078
Flit latency average = 22.3821
	minimum = 7
	maximum = 64
Slowest flit = 54078
Fragmentation average = 0
	minimum = 0
	maximum = 0
Injected packet rate average = 0.103375
	minimum = 0.074 (at node 8)
	maximum = 0.128 (at node 10)
Accepted packet rate average = 0.10175
	minimum = 0.078 (at node 5)
	maximum = 0.12 (at node 0)
Injected flit rate average = 0.103375
	minimum = 0.074 (at node 8)
	maximum = 0.128 (at node 10)
Accepted flit rate average= 0.10175
	minimum = 0.078 (at node 5)
	maximum = 0.12 (at node 0)
Injected packet length average = 1
Accepted packet length average = 1
Total in-flight flits = 40 (40 measured)
latency change    = 0.00626913
throughput change = 0.022113
Class 0:
Packet latency average = 22.4625
	minimum = 7
	maximum = 82
Network latency average = 22.4285
	minimum = 7
	maximum = 82
Slowest packet = 54565
Flit latency average = 22.4796
	minimum = 7
	maximum = 82
Slowest flit = 54565
Fragmentation average = 0
	minimum = 0
	maximum = 0
Injected packet rate average = 0.101375
	minimum = 0.087 (at node 6)
	maximum = 0.123 (at node 14)
Accepted packet rate average = 0.100875
	minimum = 0.086 (at node 5)
	maximum = 0.121 (at node 9)
Injected flit rate average = 0.101375
	minimum = 0.087 (at node 6)
	maximum = 0.123 (at node 14)
Accepted flit rate average= 0.100875
	minimum = 0.086 (at node 5)
	maximum = 0.121 (at node 9)
Injected packet length average = 1
Accepted packet length average = 1
Total in-flight flits = 35 (35 measured)
latency change    = 0.00707058
throughput change = 0.0086741
Class 0:
Packet latency average = 22.3595
	minimum = 7
	maximum = 88
Network latency average = 22.3361
	minimum = 7
	maximum = 88
Slowest packet = 55456
Flit latency average = 22.3706
	minimum = 7
	maximum = 88
Slowest flit = 55456
Fragmentation average = 0
	minimum = 0
	maximum = 0
Injected packet rate average = 0.103125
	minimum = 0.0946667 (at node 8)
	maximum = 0.124667 (at node 14)
Accepted packet rate average = 0.102542
	minimum = 0.0893333 (at node 2)
	maximum = 0.116 (at node 9)
Injected flit rate average = 0.103125
	minimum = 0.0946667 (at node 8)
	maximum = 0.124667 (at node 14)
Accepted flit rate average= 0.102542
	minimum = 0.0893333 (at node 2)
	maximum = 0.116 (at node 9)
Injected packet length average = 1
Accepted packet length average = 1
Total in-flight flits = 41 (41 measured)
latency change    = 0.00460732
throughput change = 0.0162536
Draining all recorded packets ...
Draining remaining packets ...
Time taken is 3064 cycles
Class 0:
Packet latency average = 21.0089
	minimum = 7
	maximum = 53
Network latency average = 21
	minimum = 7
	maximum = 53
Slowest packet = 56129
Flit latency average = 21
	minimum = 7
	maximum = 53
Slowest flit = 56129
Fragmentation average = 0
	minimum = 0
	maximum = 0
Injected packet rate average = 0.101875
	minimum = 0.084 (at node 11)
	maximum = 0.118 (at node 15)
Accepted packet rate average = 0.098125
	minimum = 0.082 (at node 12)
	maximum = 0.124 (at node 8)
Injected flit rate average = 0.101875
	minimum = 0.084 (at node 11)
	maximum = 0.118 (at node 15)
Accepted flit rate average= 0.098125
	minimum = 0.082 (at node 12)
	maximum = 0.124 (at node 8)
Injected packet length average = 1
Accepted packet length average = 1
Total in-flight flits = 30 (0 measured)
latency change    = 1
throughput change = 1
Class 0:
Packet latency average = 21.3496
	minimum = 7
	maximum = 54
Network latency average = 21.3432
	minimum = 7
	maximum = 54
Slowest packet = 57569
Flit latency average = 21.3432
	minimum = 7
	maximum = 54
Slowest flit = 57569
Fragmentation average = 0
	minimum = 0
	maximum = 0
Injected packet rate average = 0.100437
	minimum = 0.088 (at node 11)
	maximum = 0.109 (at node 8)
Accepted packet rate average = 0.098875
	minimum = 0.087 (at node 12)
	maximum = 0.117 (at node 8)
Injected flit rate average = 0.100437
	minimum = 0.088 (at node 11)
	maximum = 0.109 (at node 8)
Accepted flit rate average= 0.098875
	minimum = 0.087 (at node 12)
	maximum = 0.117 (at node 8)
Injected packet length average = 1
Accepted packet length average = 1
Total in-flight flits = 25 (0 measured)
latency change    = 0.0159554
throughput change = 0.00758534
Class 0:
Packet latency average = 21.2922
	minimum = 7
	maximum = 64
Network latency average = 21.2909
	minimum = 7
	maximum = 64
Slowest packet = 58332
Flit latency average = 21.2909
	minimum = 7
	maximum = 64
Slowest flit = 58332
Fragmentation average = 0
	minimum = 0
	maximum = 0
Injected packet rate average = 0.100875
	minimum = 0.084 (at node 14)
	maximum = 0.122 (at node 3)
Accepted packet rate average = 0.09925
	minimum = 0.076 (at node 6)
	maximum = 0.132 (at node 9)
Injected flit rate average = 0.100875
	minimum = 0.084 (at node 14)
	maximum = 0.122 (at node 3)
Accepted flit rate average= 0.09925
	minimum = 0.076 (at node 6)
	maximum = 0.132 (at node 9)
Injected packet length average = 1
Accepted packet length average = 1
Total in-flight flits = 38 (0 measured)
latency change    = 0.00269423
throughput change = 0.00377834
Warmed up ...Time used is 1500 cycles
Class 0:
Packet latency average = 22.1472
	minimum = 7
	maximum = 65
Network latency average = 22.1446
	minimum = 7
	maximum = 65
Slowest packet = 58664
Flit latency average = 22.2992
	minimum = 7
	maximum = 65
Slowest flit = 58664
Fragmentation average = 0
	minimum = 0
	maximum = 0
Injected packet rate average = 0.098125
	minimum = 0.072 (at node 0)
	maximum = 0.132 (at node 4)
Accepted packet rate average = 0.099
	minimum = 0.084 (at node 9)
	maximum = 0.114 (at node 3)
Injected flit rate average = 0.098125
	minimum = 0.072 (at node 0)
	maximum = 0.132 (at node 4)
Accepted flit rate average= 0.099
	minimum = 0.084 (at node 9)
	maximum = 0.114 (at node 3)
Injected packet length average = 1
Accepted packet length average = 1
Total in-flight flits = 31 (31 measured)
latency change    = 0.0386064
throughput change = 0.00252525
Class 0:
Packet latency average = 22.9825
	minimum = 7
	maximum = 77
Network latency average = 22.9786
	minimum = 7
	maximum = 77
Slowest packet = 59419
Flit latency average = 23.036
	minimum = 7
	maximum = 77
Slowest flit = 59419
Fragmentation average = 0
	minimum = 0
	maximum = 0
Injected packet rate average = 0.09875
	minimum = 0.082 (at node 12)
	maximum = 0.12 (at node 4)
Accepted packet rate average = 0.098875
	minimum = 0.078 (at node 5)
	maximum = 0.122 (at node 3)
Injected flit rate average = 0.09875
	minimum = 0.082 (at node 12)
	maximum = 0.12 (at node 4)
Accepted flit rate average= 0.098875
	minimum = 0.078 (at node 5)
	maximum = 0.122 (at node 3)
Injected packet length average = 1
Accepted packet length average = 1
Total in-flight flits = 36 (36 measured)
latency change    = 0.0363449
throughput change = 0.00126422
Class 0:
Packet latency average = 23.1095
	minimum = 7
	maximum = 85
Network latency average = 23.1006
	minimum = 7
	maximum = 85
Slowest packet = 60617
Flit latency average = 23.1366
	minimum = 7
	maximum = 85
Slowest flit = 60617
Fragmentation average = 0
	minimum = 0
	maximum = 0
Injected packet rate average = 0.0996667
	minimum = 0.0906667 (at node 0)
	maximum = 0.115333 (at node 10)
Accepted packet rate average = 0.09975
	minimum = 0.0833333 (at node 5)
	maximum = 0.117333 (at node 3)
Injected flit rate average = 0.0996667
	minimum = 0.0906667 (at node 0)
	maximum = 0.115333 (at node 10)
Accepted flit rate average= 0.09975
	minimum = 0.0833333 (at node 5)
	maximum = 0.117333 (at node 3)
Injected packet length average = 1
Accepted packet length average = 1
Total in-flight flits = 36 (36 measured)
latency change    = 0.00549534
throughput change = 0.00877193
Draining all recorded packets ...
Draining remaining packets ...
Time taken is 3074 cycles
Class 0:
Packet latency average = 20.9402
	minimum = 7
	maximum = 58
Network latency average = 20.9402
	minimum = 7
	maximum = 58
Slowest packet = 61162
Flit latency average = 20.9402
	minimum = 7
	maximum = 58
Slowest flit = 61162
Fragmentation average = 0
	minimum = 0
	maximum = 0
Injected packet rate average = 0.098625
	minimum = 0.076 (at node 1)
	maximum = 0.12 (at node 8)
Accepted packet rate average = 0.094
	minimum = 0.072 (at node 14)
	maximum = 0.118 (at node 10)
Injected flit rate average = 0.098625
	minimum = 0.076 (at node 1)
	maximum = 0.12 (at node 8)
Accepted flit rate average= 0.094
	minimum = 0.072 (at node 14)
	maximum = 0.118 (at node 10)
Injected packet length average = 1
Accepted packet length average = 1
Total in-flight flits = 37 (0 measured)
latency change    = 1
throughput change = 1
Class 0:
Packet latency average = 21.2462
	minimum = 7
	maximum = 58
Network latency average = 21.2462
	minimum = 7
	maximum = 58
Slowest packet = 61162
Flit latency average = 21.2462
	minimum = 7
	maximum = 58
Slowest flit = 61162
Fragmentation average = 0
	minimum = 0
	maximum = 0
Injected packet rate average = 0.0956875
	minimum = 0.075 (at node 10)
	maximum = 0.113 (at node 8)
Accepted packet rate average = 0.0936875
	minimum = 0.072 (at node 1)
	maximum = 0.114 (at node 5)
Injected flit rate average = 0.0956875
	minimum = 0.075 (at node 10)
	maximum = 0.113 (at node 8)
Accepted flit rate average= 0.0936875
	minimum = 0.072 (at node 1)
	maximum = 0.114 (at node 5)
Injected packet length average = 1
Accepted packet length average = 1
Total in-flight flits = 32 (0 measured)
latency change    = 0.0144028
throughput change = 0.00333556
Class 0:
Packet latency average = 21.9526
	minimum = 7
	maximum = 62
Network latency average = 21.9316
	minimum = 7
	maximum = 62
Slowest packet = 62903
Flit latency average = 21.9316
	minimum = 7
	maximum = 62
Slowest flit = 62903
Fragmentation average = 0
	minimum = 0
	maximum = 0
Injected packet rate average = 0.09575
	minimum = 0.066 (at node 14)
	maximum = 0.12 (at node 1)
Accepted packet rate average = 0.095
	minimum = 0.072 (at node 12)
	maximum = 0.12 (at node 15)
Injected flit rate average = 0.09575
	minimum = 0.066 (at node 14)
	maximum = 0.12 (at node 1)
Accepted flit rate average= 0.095
	minimum = 0.072 (at node 12)
	maximum = 0.12 (at node 15)
Injected packet length average = 1
Accepted packet length average = 1
Total in-flight flits = 38 (0 measured)
latency change    = 0.0321814
throughput change = 0.0138158
Warmed up ...Time used is 1500 cycles
Class 0:
Packet latency average = 21.9649
	minimum = 7
	maximum = 66
Network latency average = 21.9649
	minimum = 7
	maximum = 66
Slowest packet = 63558
Flit latency average = 21.9394
	minimum = 7
	maximum = 66
Slowest flit = 63558
Fragmentation average = 0
	minimum = 0
	maximum = 0
Injected packet rate average = 0.10075
	minimum = 0.076 (at node 12)
	maximum = 0.118 (at node 2)
Accepted packet rate average = 0.101
	minimum = 0.068 (at node 13)
	maximum = 0.12 (at node 12)
Injected flit rate average = 0.10075
	minimum = 0.076 (at node 12)
	maximum = 0.118 (at node 2)
Accepted flit rate average= 0.101
	minimum = 0.068 (at node 13)
	maximum = 0.12 (at node 12)
Injected packet length average = 1
Accepted packet length average = 1
Total in-flight flits = 36 (36 measured)
latency change    = 0.000560142
throughput change = 0.0594059
Class 0:
Packet latency average = 21.8565
	minimum = 7
	maximum = 69
Network latency average = 21.8559
	minimum = 7
	maximum = 69
Slowest packet = 64099
Flit latency average = 21.8456
	minimum = 7
	maximum = 69
Slowest flit = 64099
Fragmentation average = 0
	minimum = 0
	maximum = 0
Injected packet rate average = 0.100125
	minimum = 0.088 (at node 4)
	maximum = 0.11 (at node 5)
Accepted packet rate average = 0.100375
	minimum = 0.08 (at node 13)
	maximum = 0.114 (at node 12)
Injected flit rate average = 0.100125
	minimum = 0.088 (at node 4)
	maximum = 0.11 (at node 5)
Accepted flit rate average= 0.100375
	minimum = 0.08 (at node 13)
	maximum = 0.114 (at node 12)
Injected packet length average = 1
Accepted packet length average = 1
Total in-flight flits = 34 (34 measured)
latency change    = 0.00496099
throughput change = 0.00622665
Class 0:
Packet latency average = 22.1616
	minimum = 7
	maximum = 74
Network latency average = 22.1599
	minimum = 7
	maximum = 74
Slowest packet = 65062
Flit latency average = 22.1483
	minimum = 7
	maximum = 74
Slowest flit = 65062
Fragmentation average = 0
	minimum = 0
	maximum = 0
Injected packet rate average = 0.100375
	minimum = 0.092 (at node 13)
	maximum = 0.112667 (at node 5)
Accepted packet rate average = 0.100875
	minimum = 0.0873333 (at node 3)
	maximum = 0.111333 (at node 9)
Injected flit rate average = 0.100375
	minimum = 0.092 (at node 13)
	maximum = 0.112667 (at node 5)
Accepted flit rate average= 0.100875
	minimum = 0.0873333 (at node 3)
	maximum = 0.111333 (at node 9)
Injected packet length average = 1
Accepted packet length average = 1
Total in-flight flits = 26 (26 measured)
latency change    = 0.0137651
throughput change = 0.00495663
Class 0:
Packet latency average = 22.0241
	minimum = 7
	maximum = 74
Network latency average = 22.0228
	minimum = 7
	maximum = 74
Slowest packet = 65062
Flit latency average = 22.0157
	minimum = 7
	maximum = 74
Slowest flit = 65062
Fragmentation average = 0
	minimum = 0
	maximum = 0
Injected packet rate average = 0.0995937
	minimum = 0.091 (at node 13)
	maximum = 0.1095 (at node 8)
Accepted packet rate average = 0.0997813
	minimum = 0.09 (at node 6)
	maximum = 0.1075 (at node 7)
Injected flit rate average = 0.0995937
	minimum = 0.091 (at node 13)
	maximum = 0.1095 (at node 8)
Accepted flit rate average= 0.0997813
	minimum = 0.09 (at node 6)
	maximum = 0.1075 (at node 7)
Injected packet length average = 1
Accepted packet length average = 1
Total in-flight flits = 32 (32 measured)
latency change    = 0.00624191
throughput change = 0.0109615
Draining all recorded packets ...
Draining remaining packets ...
Time taken is 3561 cycles
Class 0:
Packet latency average = 21.9026
	minimum = 7
	maximum = 81
Network latency average = 21.8909
	minimum = 7
	maximum = 81
Slowest packet = 67005
Flit latency average = 21.8909
	minimum = 7
	maximum = 81
Slowest flit = 67005
Fragmentation average = 0
	minimum = 0
	maximum = 0
Injected packet rate average = 0.1005
	minimum = 0.072 (at node 9)
	maximum = 0.132 (at node 6)
Accepted packet rate average = 0.09625
	minimum = 0.066 (at node 8)
	maximum = 0.12 (at node 4)
Injected flit rate average = 0.1005
	minimum = 0.072 (at node 9)
	maximum = 0.132 (at node 6)
Accepted flit rate average= 0.09625
	minimum = 0.066 (at node 8)
	maximum = 0.12 (at node 4)
Injected packet length average = 1
Accepted packet length average = 1
Total in-flight flits = 34 (0 measured)
latency change    = 1
throughput change = 1
Class 0:
Packet latency average = 21.985
	minimum = 7
	maximum = 81
Network latency average = 21.9759
	minimum = 7
	maximum = 81
Slowest packet = 67005
Flit latency average = 21.9759
	minimum = 7
	maximum = 81
Slowest flit = 67005
Fragmentation average = 0
	minimum = 0
	maximum = 0
Injected packet rate average = 0.0981875
	minimum = 0.085 (at node 7)
	maximum = 0.12 (at node 10)
Accepted packet rate average = 0.0959375
	minimum = 0.073 (at node 15)
	maximum = 0.116 (at node 6)
Injected flit rate average = 0.0981875
	minimum = 0.085 (at node 7)
	maximum = 0.12 (at node 10)
Accepted flit rate average= 0.0959375
	minimum = 0.073 (at node 15)
	maximum = 0.116 (at node 6)
Injected packet length average = 1
Accepted packet length average = 1
Total in-flight flits = 36 (0 measured)
latency change    = 0.00374887
throughput change = 0.00325733
Class 0:
Packet latency average = 21.7041
	minimum = 7
	maximum = 56
Network latency average = 21.7041
	minimum = 7
	maximum = 56
Slowest packet = 68256
Flit latency average = 21.7041
	minimum = 7
	maximum = 56
Slowest flit = 68256
Fragmentation average = 0
	minimum = 0
	maximum = 0
Injected packet rate average = 0.096375
	minimum = 0.08 (at node 7)
	maximum = 0.118 (at node 0)
Accepted packet rate average = 0.09675
	minimum = 0.076 (at node 9)
	maximum = 0.12 (at node 1)
Injected flit rate average = 0.096375
	minimum = 0.08 (at node 7)
	maximum = 0.118 (at node 0)
Accepted flit rate average= 0.09675
	minimum = 0.076 (at node 9)
	maximum = 0.12 (at node 1)
Injected packet length average = 1
Accepted packet length average = 1
Total in-flight flits = 33 (0 measured)
latency change    = 0.0129414
throughput change = 0.00839793
Warmed up ...Time used is 1500 cycles
Class 0:
Packet latency average = 21.8999
	minimum = 7
	maximum = 72
Network latency average = 21.8999
	minimum = 7
	maximum = 72
Slowest packet = 69186
Flit latency average = 22.0357
	minimum = 7
	maximum = 72
Slowest flit = 69186
Fragmentation average = 0
	minimum = 0
	maximum = 0
Injected packet rate average = 0.102
	minimum = 0.078 (at node 1)
	maximum = 0.124 (at node 5)
Accepted packet rate average = 0.1015
	minimum = 0.082 (at node 1)
	maximum = 0.126 (at node 14)
Injected flit rate average = 0.102
	minimum = 0.078 (at node 1)
	maximum = 0.124 (at node 5)
Accepted flit rate average= 0.1015
	minimum = 0.082 (at node 1)
	maximum = 0.126 (at node 14)
Injected packet length average = 1
Accepted packet length average = 1
Total in-flight flits = 37 (37 measured)
latency change    = 0.00893783
throughput change = 0.046798
Class 0:
Packet latency average = 22.3219
	minimum = 7
	maximum = 72
Network latency average = 22.3026
	minimum = 7
	maximum = 72
Slowest packet = 69186
Flit latency average = 22.3619
	minimum = 7
	maximum = 72
Slowest flit = 69186
Fragmentation average = 0
	minimum = 0
	maximum = 0
Injected packet rate average = 0.10225
	minimum = 0.085 (at node 2)
	maximum = 0.124 (at node 10)
Accepted packet rate average = 0.10225
	minimum = 0.091 (at node 0)
	maximum = 0.126 (at node 4)
Injected flit rate average = 0.10225
	minimum = 0.085 (at node 2)
	maximum = 0.124 (at node 10)
Accepted flit rate average= 0.10225
	minimum = 0.091 (at node 0)
	maximum = 0.126 (at node 4)
Injected packet length average = 1
Accepted packet length average = 1
Total in-flight flits = 33 (33 measured)
latency change    = 0.0189063
throughput change = 0.00733496
Class 0:
Packet latency average = 21.9741
	minimum = 7
	maximum = 72
Network latency average = 21.9605
	minimum = 7
	maximum = 72
Slowest packet = 69186
Flit latency average = 22.0045
	minimum = 7
	maximum = 72
Slowest flit = 69186
Fragmentation average = 0
	minimum = 0
	maximum = 0
Injected packet rate average = 0.102708
	minimum = 0.0886667 (at node 1)
	maximum = 0.12 (at node 10)
Accepted packet rate average = 0.102583
	minimum = 0.0873333 (at node 1)
	maximum = 0.124 (at node 4)
Injected flit rate average = 0.102708
	minimum = 0.0886667 (at node 1)
	maximum = 0.12 (at node 10)
Accepted flit rate average= 0.102583
	minimum = 0.0873333 (at node 1)
	maximum = 0.124 (at node 4)
Injected packet length average = 1
Accepted packet length average = 1
Total in-flight flits = 36 (36 measured)
latency change    = 0.0158293
throughput change = 0.00324939
Draining all recorded packets ...
Draining remaining packets ...
Time taken is 3074 cycles
Class 0:
Packet latency average = 20.8394
	minimum = 7
	maximum = 57
Network latency average = 20.8368
	minimum = 7
	maximum = 57
Slowest packet = 71552
Flit latency average = 20.8368
	minimum = 7
	maximum = 57
Slowest flit = 71552
Fragmentation average = 0
	minimum = 0
	maximum = 0
Injected packet rate average = 0.100625
	minimum = 0.066 (at node 8)
	maximum = 0.122 (at node 1)
Accepted packet rate average = 0.0965
	minimum = 0.07 (at node 0)
	maximum = 0.124 (at node 6)
Injected flit rate average = 0.100625
	minimum = 0.066 (at node 8)
	maximum = 0.122 (at node 1)
Accepted flit rate average= 0.0965
	minimum = 0.07 (at node 0)
	maximum = 0.124 (at node 6)
Injected packet length average = 1
Accepted packet length average = 1
Total in-flight flits = 33 (0 measured)
latency change    = 1
throughput change = 1
Class 0:
Packet latency average = 21.4588
	minimum = 7
	maximum = 61
Network latency average = 21.4576
	minimum = 7
	maximum = 61
Slowest packet = 72606
Flit latency average = 21.4576
	minimum = 7
	maximum = 61
Slowest flit = 72606
Fragmentation average = 0
	minimum = 0
	maximum = 0
Injected packet rate average = 0.100437
	minimum = 0.079 (at node 8)
	maximum = 0.118 (at node 3)
Accepted packet rate average = 0.0979375
	minimum = 0.076 (at node 0)
	maximum = 0.128 (at node 10)
Injected flit rate average = 0.100437
	minimum = 0.079 (at node 8)
	maximum = 0.118 (at node 3)
Accepted flit rate average= 0.0979375
	minimum = 0.076 (at node 0)
	maximum = 0.128 (at node 10)
Injected packet length average = 1
Accepted packet length average = 1
Total in-flight flits = 40 (0 measured)
latency change    = 0.0288674
throughput change = 0.0146777
Class 0:
Packet latency average = 21.7406
	minimum = 7
	maximum = 63
Network latency average = 21.7406
	minimum = 7
	maximum = 63
Slowest packet = 73023
Flit latency average = 21.7406
	minimum = 7
	maximum = 63
Slowest flit = 73023
Fragmentation average = 0
	minimum = 0
	maximum = 0
Injected packet rate average = 0.097875
	minimum = 0.082 (at node 14)
	maximum = 0.114 (at node 10)
Accepted packet rate average = 0.09925
	minimum = 0.082 (at node 8)
	maximum = 0.114 (at node 4)
Injected flit rate average = 0.097875
	minimum = 0.082 (at node 14)
	maximum = 0.114 (at node 10)
Accepted flit rate average= 0.09925
	minimum = 0.082 (at node 8)
	maximum = 0.114 (at node 4)
Injected packet length average = 1
Accepted packet length average = 1
Total in-flight flits = 29 (0 measured)
latency change    = 0.0129581
throughput change = 0.0132242
Warmed up ...Time used is 1500 cycles
Class 0:
Packet latency average = 21.9973
	minimum = 7
	maximum = 68
Network latency average = 21.9773
	minimum = 7
	maximum = 68
Slowest packet = 74177
Flit latency average = 22.1506
	minimum = 7
	maximum = 68
Slowest flit = 74177
Fragmentation average = 0
	minimum = 0
	maximum = 0
Injected packet rate average = 0.098375
	minimum = 0.08 (at node 1)
	maximum = 0.118 (at node 4)
Accepted packet rate average = 0.097125
	minimum = 0.068 (at node 14)
	maximum = 0.118 (at node 12)
Injected flit rate average = 0.098375
	minimum = 0.08 (at node 1)
	maximum = 0.118 (at node 4)
Accepted flit rate average= 0.097125
	minimum = 0.068 (at node 14)
	maximum = 0.118 (at node 12)
Injected packet length average = 1
Accepted packet length average = 1
Total in-flight flits = 39 (39 measured)
latency change    = 0.0116729
throughput change = 0.021879
Class 0:
Packet latency average = 22.5148
	minimum = 7
	maximum = 68
Network latency average = 22.5016
	minimum = 7
	maximum = 68
Slowest packet = 74177
[...]
Fragmentation average = 0
	minimum = 0
	maximum = 0
Injected packet rate average = 0.100125
	minimum = 0.0846667 (at node 2)
	maximum = 0.109333 (at node 14)
Accepted packet rate average = 0.100292
	minimum = 0.088 (at node 3)
	maximum = 0.116667 (at node 10)
Injected flit rate average = 0.100125
	minimum = 0.0846667 (at node 2)
	maximum = 0.109333 (at node 14)
Accepted flit rate average= 0.100292
	minimum = 0.088 (at node 3)
	maximum = 0.116667 (at node 10)
Injected packet length average = 1
Accepted packet length average = 1
Total in-flight flits = 43 (43 measured)
latency change    = 0.00854634
throughput change = 0.002285
Class 0:
Packet latency average = 22.3364
	minimum = 7
	maximum = 113
Network latency average = 22.332
	minimum = 7
	maximum = 113
Slowest packet = 246216
Flit latency average = 22.4121
	minimum = 7
	maximum = 113
Slowest flit = 246216
Fragmentation average = 0
	minimum = 0
	maximum = 0
Injected packet rate average = 0.0994687
	minimum = 0.0855 (at node 2)
	maximum = 0.1085 (at node 13)
Accepted packet rate average = 0.0999375
	minimum = 0.0875 (at node 12)
	maximum = 0.1125 (at node 4)
Injected flit rate average = 0.0994687
	minimum = 0.0855 (at node 2)
	maximum = 0.1085 (at node 13)
Accepted flit rate average= 0.0999375
	minimum = 0.0875 (at node 12)
	maximum = 0.1125 (at node 4)
Injected packet length average = 1
Accepted packet length average = 1
Total in-flight flits = 32 (32 measured)
latency change    = 0.0221745
throughput change = 0.00354388
Draining all recorded packets ...
Draining remaining packets ...
Time taken is 3565 cycles
Class 0:
Packet latency average = 21.5393
	minimum = 7
	maximum = 54
Network latency average = 21.538
	minimum = 7
	maximum = 54
Slowest packet = 247431
Flit latency average = 21.538
	minimum = 7
	maximum = 54
Slowest flit = 247431
Fragmentation average = 0
	minimum = 0
	maximum = 0
Injected packet rate average = 0.10275
	minimum = 0.084 (at node 12)
	maximum = 0.126 (at node 7)
Accepted packet rate average = 0.097125
	minimum = 0.078 (at node 11)
	maximum = 0.122 (at node 1)
Injected flit rate average = 0.10275
	minimum = 0.084 (at node 12)
	maximum = 0.126 (at node 7)
Accepted flit rate average= 0.097125
	minimum = 0.078 (at node 11)
	maximum = 0.122 (at node 1)
Injected packet length average = 1
Accepted packet length average = 1
Total in-flight flits = 45 (0 measured)
latency change    = 1
throughput change = 1
Class 0:
Packet latency average = 22.0074
	minimum = 7
	maximum = 63
Network latency average = 21.9572
	minimum = 7
	maximum = 61
Slowest packet = 247461
Flit latency average = 21.9572
	minimum = 7
	maximum = 61
Slowest flit = 248192
Fragmentation average = 0
	minimum = 0
	maximum = 0
Injected packet rate average = 0.102625
	minimum = 0.091 (at node 0)
	maximum = 0.122 (at node 15)
Accepted packet rate average = 0.10075
	minimum = 0.078 (at node 3)
	maximum = 0.13 (at node 1)
Injected flit rate average = 0.102625
	minimum = 0.091 (at node 0)
	maximum = 0.122 (at node 15)
Accepted flit rate average= 0.10075
	minimum = 0.078 (at node 3)
	maximum = 0.13 (at node 1)
Injected packet length average = 1
Accepted packet length average = 1
Total in-flight flits = 30 (0 measured)
latency change    = 0.0212742
throughput change = 0.0359801
Class 0:
Packet latency average = 22.2162
	minimum = 7
	maximum = 76
Network latency average = 22.2162
	minimum = 7
	maximum = 76
Slowest packet = 249010
Flit latency average = 22.2162
	minimum = 7
	maximum = 76
Slowest flit = 249010
Fragmentation average = 0
	minimum = 0
	maximum = 0
Injected packet rate average = 0.097375
	minimum = 0.08 (at node 0)
	maximum = 0.124 (at node 8)
Accepted packet rate average = 0.09425
	minimum = 0.068 (at node 9)
	maximum = 0.132 (at node 14)
Injected flit rate average = 0.097375
	minimum = 0.08 (at node 0)
	maximum = 0.124 (at node 8)
Accepted flit rate average= 0.09425
	minimum = 0.068 (at node 9)
	maximum = 0.132 (at node 14)
Injected packet length average = 1
Accepted packet length average = 1
Total in-flight flits = 55 (0 measured)
latency change    = 0.00939568
throughput change = 0.0689655
Warmed up ...Time used is 1500 cycles
Class 0:
Packet latency average = 24.0445
	minimum = 7
	maximum = 88
Network latency average = 23.9835
	minimum = 7
	maximum = 88
Slowest packet = 249263
Flit latency average = 24.2949
	minimum = 7
	maximum = 88
Slowest flit = 249263
Fragmentation average = 0
	minimum = 0
	maximum = 0
Injected packet rate average = 0.104125
	minimum = 0.078 (at node 0)
	maximum = 0.122 (at node 11)
Accepted packet rate average = 0.105125
	minimum = 0.082 (at node 5)
	maximum = 0.134 (at node 13)
Injected flit rate average = 0.104125
	minimum = 0.078 (at node 0)
	maximum = 0.122 (at node 11)
Accepted flit rate average= 0.105125
	minimum = 0.082 (at node 5)
	maximum = 0.134 (at node 13)
Injected packet length average = 1
Accepted packet length average = 1
Total in-flight flits = 47 (47 measured)
latency change    = 0.0760401
throughput change = 0.103448
Class 0:
Packet latency average = 22.6798
	minimum = 7
	maximum = 91
Network latency average = 22.6492
	minimum = 7
	maximum = 91
Slowest packet = 249963
Flit latency average = 22.8558
	minimum = 7
	maximum = 91
Slowest flit = 249963
Fragmentation average = 0
	minimum = 0
	maximum = 0
Injected packet rate average = 0.10025
	minimum = 0.089 (at node 5)
	maximum = 0.112 (at node 3)
Accepted packet rate average = 0.101437
	minimum = 0.08 (at node 9)
	maximum = 0.116 (at node 10)
Injected flit rate average = 0.10025
	minimum = 0.089 (at node 5)
	maximum = 0.112 (at node 3)
Accepted flit rate average= 0.101437
	minimum = 0.08 (at node 9)
	maximum = 0.116 (at node 10)
Injected packet length average = 1
Accepted packet length average = 1
Total in-flight flits = 36 (36 measured)
latency change    = 0.0601716
throughput change = 0.0363524
Class 0:
Packet latency average = 22.4909
	minimum = 7
	maximum = 91
Network latency average = 22.4627
	minimum = 7
	maximum = 91
Slowest packet = 249963
Flit latency average = 22.6051
	minimum = 7
	maximum = 91
Slowest flit = 249963
Fragmentation average = 0
	minimum = 0
	maximum = 0
Injected packet rate average = 0.100458
	minimum = 0.0893333 (at node 5)
	maximum = 0.113333 (at node 3)
Accepted packet rate average = 0.101083
	minimum = 0.0806667 (at node 0)
	maximum = 0.122 (at node 15)
Injected flit rate average = 0.100458
	minimum = 0.0893333 (at node 5)
	maximum = 0.113333 (at node 3)
Accepted flit rate average= 0.101083
	minimum = 0.0806667 (at node 0)
	maximum = 0.122 (at node 15)
Injected packet length average = 1
Accepted packet length average = 1
Total in-flight flits = 40 (40 measured)
latency change    = 0.0083996
throughput change = 0.00350371
Class 0:
Packet latency average = 22.4271
	minimum = 7
	maximum = 91
Network latency average = 22.4039
	minimum = 7
	maximum = 91
Slowest packet = 249963
Flit latency average = 22.5112
	minimum = 7
	maximum = 91
Slowest flit = 249963
Fragmentation average = 0
	minimum = 0
	maximum = 0
Injected packet rate average = 0.100937
	minimum = 0.09 (at node 5)
	maximum = 0.118 (at node 3)
Accepted packet rate average = 0.101531
	minimum = 0.0855 (at node 0)
	maximum = 0.1175 (at node 15)
Injected flit rate average = 0.100937
	minimum = 0.09 (at node 5)
	maximum = 0.118 (at node 3)
Accepted flit rate average= 0.101531
	minimum = 0.0855 (at node 0)
	maximum = 0.1175 (at node 15)
Injected packet length average = 1
Accepted packet length average = 1
Total in-flight flits = 36 (36 measured)
latency change    = 0.00284841
throughput change = 0.00441161
Class 0:
Packet latency average = 22.3785
	minimum = 7
	maximum = 91
Network latency average = 22.3598
	minimum = 7
	maximum = 91
Slowest packet = 249963
Flit latency average = 22.4462
	minimum = 7
	maximum = 91
Slowest flit = 249963
Fragmentation average = 0
	minimum = 0
	maximum = 0
Injected packet rate average = 0.101075
	minimum = 0.0912 (at node 13)
	maximum = 0.1148 (at node 3)
Accepted packet rate average = 0.1017
	minimum = 0.0888 (at node 0)
	maximum = 0.1132 (at node 13)
Injected flit rate average = 0.101075
	minimum = 0.0912 (at node 13)
	maximum = 0.1148 (at node 3)
Accepted flit rate average= 0.1017
	minimum = 0.0888 (at node 0)
	maximum = 0.1132 (at node 13)
Injected packet length average = 1
Accepted packet length average = 1
Total in-flight flits = 30 (30 measured)
latency change    = 0.00216864
throughput change = 0.00165929
Draining all recorded packets ...
Draining remaining packets ...
Time taken is 4062 cycles
Class 0:
Packet latency average = 22.3866
	minimum = 7
	maximum = 61
Network latency average = 22.3828
	minimum = 7
	maximum = 61
Slowest packet = 253811
Flit latency average = 22.3828
	minimum = 7
	maximum = 61
Slowest flit = 253811
Fragmentation average = 0
	minimum = 0
	maximum = 0
Injected packet rate average = 0.10275
	minimum = 0.084 (at node 5)
	maximum = 0.126 (at node 4)
Accepted packet rate average = 0.098625
	minimum = 0.072 (at node 0)
	maximum = 0.122 (at node 4)
Injected flit rate average = 0.10275
	minimum = 0.084 (at node 5)
	maximum = 0.126 (at node 4)
Accepted flit rate average= 0.098625
	minimum = 0.072 (at node 0)
	maximum = 0.122 (at node 4)
Injected packet length average = 1
Accepted packet length average = 1
Total in-flight flits = 33 (0 measured)
latency change    = 1
throughput change = 1
Class 0:
Packet latency average = 22.1003
	minimum = 7
	maximum = 61
Network latency average = 22.0977
	minimum = 7
	maximum = 61
Slowest packet = 253811
Flit latency average = 22.0977
	minimum = 7
	maximum = 61
Slowest flit = 253811
Fragmentation average = 0
	minimum = 0
	maximum = 0
Injected packet rate average = 0.0995625
	minimum = 0.087 (at node 8)
	maximum = 0.114 (at node 4)
Accepted packet rate average = 0.09725
	minimum = 0.082 (at node 5)
	maximum = 0.113 (at node 4)
Injected flit rate average = 0.0995625
	minimum = 0.087 (at node 8)
	maximum = 0.114 (at node 4)
Accepted flit rate average= 0.09725
	minimum = 0.082 (at node 5)
	maximum = 0.113 (at node 4)
Injected packet length average = 1
Accepted packet length average = 1
Total in-flight flits = 37 (0 measured)
latency change    = 0.012955
throughput change = 0.0141388
Class 0:
Packet latency average = 21.1617
	minimum = 7
	maximum = 66
Network latency average = 21.1617
	minimum = 7
	maximum = 66
Slowest packet = 255267
Flit latency average = 21.1617
	minimum = 7
	maximum = 66
Slowest flit = 255267
Fragmentation average = 0
	minimum = 0
	maximum = 0
Injected packet rate average = 0.095875
	minimum = 0.076 (at node 13)
	maximum = 0.126 (at node 10)
Accepted packet rate average = 0.095875
	minimum = 0.078 (at node 10)
	maximum = 0.114 (at node 13)
Injected flit rate average = 0.095875
	minimum = 0.076 (at node 13)
	maximum = 0.126 (at node 10)
Accepted flit rate average= 0.095875
	minimum = 0.078 (at node 10)
	maximum = 0.114 (at node 13)
Injected packet length average = 1
Accepted packet length average = 1
Total in-flight flits = 37 (0 measured)
latency change    = 0.0443532
throughput change = 0.0143416
Warmed up ...Time used is 1500 cycles
Class 0:
Packet latency average = 22.0999
	minimum = 7
	maximum = 59
Network latency average = 22.0919
	minimum = 7
	maximum = 59
Slowest packet = 255802
Flit latency average = 22.2538
	minimum = 7
	maximum = 59
Slowest flit = 255802
Fragmentation average = 0
	minimum = 0
	maximum = 0
Injected packet rate average = 0.097625
	minimum = 0.076 (at node 9)
	maximum = 0.116 (at node 3)
Accepted packet rate average = 0.0985
	minimum = 0.064 (at node 15)
	maximum = 0.118 (at node 10)
Injected flit rate average = 0.097625
	minimum = 0.076 (at node 9)
	maximum = 0.116 (at node 3)
Accepted flit rate average= 0.0985
	minimum = 0.064 (at node 15)
	maximum = 0.118 (at node 10)
Injected packet length average = 1
Accepted packet length average = 1
Total in-flight flits = 30 (30 measured)
latency change    = 0.0424527
throughput change = 0.0266497
Class 0:
Packet latency average = 22.0093
	minimum = 7
	maximum = 60
Network latency average = 22.0053
	minimum = 7
	maximum = 60
Slowest packet = 257022
Flit latency average = 22.0897
	minimum = 7
	maximum = 60
Slowest flit = 257022
Fragmentation average = 0
	minimum = 0
	maximum = 0
Injected packet rate average = 0.0965
	minimum = 0.086 (at node 9)
	maximum = 0.108 (at node 14)
Accepted packet rate average = 0.0968125
	minimum = 0.072 (at node 15)
	maximum = 0.107 (at node 9)
Injected flit rate average = 0.0965
	minimum = 0.086 (at node 9)
	maximum = 0.108 (at node 14)
Accepted flit rate average= 0.0968125
	minimum = 0.072 (at node 15)
	maximum = 0.107 (at node 9)
Injected packet length average = 1
Accepted packet length average = 1
Total in-flight flits = 32 (32 measured)
latency change    = 0.00411679
throughput change = 0.0174306
Class 0:
Packet latency average = 22.0183
	minimum = 7
	maximum = 75
Network latency average = 22.003
	minimum = 7
	maximum = 75
Slowest packet = 257813
Flit latency average = 22.0591
	minimum = 7
	maximum = 75
Slowest flit = 257813
Fragmentation average = 0
	minimum = 0
	maximum = 0
Injected packet rate average = 0.097125
	minimum = 0.0873333 (at node 9)
	maximum = 0.106 (at node 7)
Accepted packet rate average = 0.0973333
	minimum = 0.086 (at node 12)
	maximum = 0.109333 (at node 8)
Injected flit rate average = 0.097125
	minimum = 0.0873333 (at node 9)
	maximum = 0.106 (at node 7)
Accepted flit rate average= 0.0973333
	minimum = 0.086 (at node 12)
	maximum = 0.109333 (at node 8)
Injected packet length average = 1
Accepted packet length average = 1
Total in-flight flits = 32 (32 measured)
latency change    = 0.000409185
throughput change = 0.00535103
Draining all recorded packets ...
Draining remaining packets ...
Time taken is 3067 cycles
Class 0:
Packet latency average = 21.7704
	minimum = 7
	maximum = 60
Network latency average = 21.7678
	minimum = 7
	maximum = 60
Slowest packet = 258611
Flit latency average = 21.7678
	minimum = 7
	maximum = 60
Slowest flit = 258611
Fragmentation average = 0
	minimum = 0
	maximum = 0
Injected packet rate average = 0.098375
	minimum = 0.08 (at node 10)
	maximum = 0.118 (at node 4)
Accepted packet rate average = 0.09475
	minimum = 0.072 (at node 10)
	maximum = 0.108 (at node 9)
Injected flit rate average = 0.098375
	minimum = 0.08 (at node 10)
	maximum = 0.118 (at node 4)
Accepted flit rate average= 0.09475
	minimum = 0.072 (at node 10)
	maximum = 0.108 (at node 9)
Injected packet length average = 1
Accepted packet length average = 1
Total in-flight flits = 30 (0 measured)
latency change    = 1
throughput change = 1
Class 0:
Packet latency average = 21.5727
	minimum = 7
	maximum = 63
Network latency average = 21.5661
	minimum = 7
	maximum = 63
Slowest packet = 259052
Flit latency average = 21.5661
	minimum = 7
	maximum = 63
Slowest flit = 259052
Fragmentation average = 0
	minimum = 0
	maximum = 0
Injected packet rate average = 0.0963125
	minimum = 0.076 (at node 13)
	maximum = 0.11 (at node 1)
Accepted packet rate average = 0.094625
	minimum = 0.074 (at node 13)
	maximum = 0.113 (at node 14)
Injected flit rate average = 0.0963125
	minimum = 0.076 (at node 13)
	maximum = 0.11 (at node 1)
Accepted flit rate average= 0.094625
	minimum = 0.074 (at node 13)
	maximum = 0.113 (at node 14)
Injected packet length average = 1
Accepted packet length average = 1
Total in-flight flits = 27 (0 measured)
latency change    = 0.00916871
throughput change = 0.001321
Class 0:
Packet latency average = 22.4635
	minimum = 7
	maximum = 71
Network latency average = 22.4584
	minimum = 7
	maximum = 71
Slowest packet = 259846
Flit latency average = 22.4584
	minimum = 7
	maximum = 71
Slowest flit = 259846
Fragmentation average = 0
	minimum = 0
	maximum = 0
Injected packet rate average = 0.098375
	minimum = 0.076 (at node 15)
	maximum = 0.116 (at node 14)
Accepted packet rate average = 0.097625
	minimum = 0.074 (at node 10)
	maximum = 0.11 (at node 2)
Injected flit rate average = 0.098375
	minimum = 0.076 (at node 15)
	maximum = 0.116 (at node 14)
Accepted flit rate average= 0.097625
	minimum = 0.074 (at node 10)
	maximum = 0.11 (at node 2)
Injected packet length average = 1
Accepted packet length average = 1
Total in-flight flits = 33 (0 measured)
latency change    = 0.0396578
throughput change = 0.0307298
Warmed up ...Time used is 1500 cycles
Class 0:
Packet latency average = 23.1199
	minimum = 7
	maximum = 74
Network latency average = 23.1158
	minimum = 7
	maximum = 74
Slowest packet = 260846
Flit latency average = 23.3067
	minimum = 7
	maximum = 74
Slowest flit = 260846
Fragmentation average = 0
	minimum = 0
	maximum = 0
Injected packet rate average = 0.0925
	minimum = 0.064 (at node 6)
	maximum = 0.116 (at node 15)
Accepted packet rate average = 0.09375
	minimum = 0.068 (at node 15)
	maximum = 0.124 (at node 12)
Injected flit rate average = 0.0925
	minimum = 0.064 (at node 6)
	maximum = 0.116 (at node 15)
Accepted flit rate average= 0.09375
	minimum = 0.068 (at node 15)
	maximum = 0.124 (at node 12)
Injected packet length average = 1
Accepted packet length average = 1
Total in-flight flits = 23 (23 measured)
latency change    = 0.0283926
throughput change = 0.0413333
Class 0:
Packet latency average = 22.0902
	minimum = 7
	maximum = 74
Network latency average = 22.0862
	minimum = 7
	maximum = 74
Slowest packet = 260846
Flit latency average = 22.202
	minimum = 7
	maximum = 74
Slowest flit = 260846
Fragmentation average = 0
	minimum = 0
	maximum = 0
Injected packet rate average = 0.09575
	minimum = 0.077 (at node 6)
	maximum = 0.114 (at node 1)
Accepted packet rate average = 0.095625
	minimum = 0.084 (at node 0)
	maximum = 0.112 (at node 12)
Injected flit rate average = 0.09575
	minimum = 0.077 (at node 6)
	maximum = 0.114 (at node 1)
Accepted flit rate average= 0.095625
	minimum = 0.084 (at node 0)
	maximum = 0.112 (at node 12)
Injected packet length average = 1
Accepted packet length average = 1
Total in-flight flits = 35 (35 measured)
latency change    = 0.0466164
throughput change = 0.0196078
Class 0:
Packet latency average = 21.8605
	minimum = 7
	maximum = 74
Network latency average = 21.8578
	minimum = 7
	maximum = 74
Slowest packet = 260846
Flit latency average = 21.9387
	minimum = 7
	maximum = 74
Slowest flit = 260846
Fragmentation average = 0
	minimum = 0
	maximum = 0
Injected packet rate average = 0.095125
	minimum = 0.0773333 (at node 6)
	maximum = 0.108667 (at node 3)
Accepted packet rate average = 0.0951667
	minimum = 0.0813333 (at node 0)
	maximum = 0.102667 (at node 11)
Injected flit rate average = 0.095125
	minimum = 0.0773333 (at node 6)
	maximum = 0.108667 (at node 3)
Accepted flit rate average= 0.0951667
	minimum = 0.0813333 (at node 0)
	maximum = 0.102667 (at node 11)
Injected packet length average = 1
Accepted packet length average = 1
Total in-flight flits = 32 (32 measured)
latency change    = 0.0105063
throughput change = 0.00481611
Draining all recorded packets ...
Draining remaining packets ...
Time taken is 3078 cycles
====== Overall Traffic Statistics ======
====== Traffic class 0 ======
Packet latency average = 22.3839 (50 samples)
	minimum = 7 (50 samples)
	maximum = 82.74 (50 samples)
Network latency average = 22.3727 (50 samples)
	minimum = 7 (50 samples)
	maximum = 82.66 (50 samples)
Flit latency average = 22.4146 (50 samples)
	minimum = 7 (50 samples)
	maximum = 83.54 (50 samples)
Fragmentation average = 0 (50 samples)
	minimum = 0 (50 samples)
	maximum = 0 (50 samples)
Injected packet rate average = 0.100347 (50 samples)
	minimum = 0.087288 (50 samples)
	maximum = 0.114475 (50 samples)
Accepted packet rate average = 0.100377 (50 samples)
	minimum = 0.086336 (50 samples)
	maximum = 0.11497 (50 samples)
Injected flit rate average = 0.100347 (50 samples)
	minimum = 0.087288 (50 samples)
	maximum = 0.114475 (50 samples)
Accepted flit rate average = 0.100377 (50 samples)
	minimum = 0.086336 (50 samples)
	maximum = 0.11497 (50 samples)
Injected packet size average = 1 (50 samples)
Accepted packet size average = 1 (50 samples)
Hops average = 3.49904 (50 samples)
Total run time 2.67858
