BEGIN Configuration File: /tmp/tmpu766g84h.cfg
topology = mesh;
k = 4;
n = 2;
routing_function = planar_adapt;
num_vcs = 4;
vc_buf_size = 4;
wait_for_tail_credit = 1;
vc_allocator = islip;
sw_allocator = islip;
alloc_iters = 1;
credit_delay = 2;
routing_delay = 1;
vc_alloc_delay = 1;
sw_alloc_delay = 1;
input_speedup = 2;
output_speedup = 1;
internal_speedup = 1.0;
traffic = hotspot;
packet_size = 1;
sim_type = latency;
injection_rate = 0.1;
warmup_periods = 3;
sample_period = 500;
sim_count = 50;
seed = 2;
link_failures = 0;
fail_seed = 101;

END Configuration File: /tmp/tmpu766g84h.cfg
Class 0:
Packet latency average = 102.963
	minimum = 7
	maximum = 442
Network latency average = 79.6367
	minimum = 7
	maximum = 442
Slowest packet = 56
Flit latency average = 79.6367
	minimum = 7
	maximum = 442
Slowest flit = 56
Fragmentation average = 0
	minimum = 0
	maximum = 0
Injected packet rate average = 0.04125
	minimum = 0.014 (at node 0)
	maximum = 0.1 (at node 15)
Accepted packet rate average = 0.030625
	minimum = 0 (at node 0)
	maximum = 0.49 (at node 11)
Injected flit rate average = 0.04125
	minimum = 0.014 (at node 0)
	maximum = 0.1 (at node 15)
Accepted flit rate average= 0.030625
	minimum = 0 (at node 0)
	maximum = 0.49 (at node 11)
Injected packet length average = 1
Accepted packet length average = 1
Total in-flight flits = 99 (0 measured)
latency change    = 1
throughput change = 1
Class 0:
Packet latency average = 179.334
	minimum = 7
	maximum = 931
Network latency average = 102.706
	minimum = 7
	maximum = 931
Slowest packet = 44
Flit latency average = 102.706
	minimum = 7
	maximum = 931
Slowest flit = 44
Fragmentation average = 0
	minimum = 0
	maximum = 0
Injected packet rate average = 0.0365
	minimum = 0.008 (at node 0)
	maximum = 0.097 (at node 10)
Accepted packet rate average = 0.030875
	minimum = 0 (at node 0)
	maximum = 0.494 (at node 11)
Injected flit rate average = 0.0365
	minimum = 0.008 (at node 0)
	maximum = 0.097 (at node 10)
Accepted flit rate average= 0.030875
	minimum = 0 (at node 0)
	maximum = 0.494 (at node 11)
Injected packet length average = 1
Accepted packet length average = 1
Total in-flight flits = 104 (0 measured)
latency change    = 0.425858
throughput change = 0.00809717
Class 0:
Packet latency average = 410.279
	minimum = 7
	maximum = 1319
Network latency average = 159.343
	minimum = 7
	maximum = 1319
Slowest packet = 134
Flit latency average = 159.343
	minimum = 7
	maximum = 1319
Slowest flit = 134
Fragmentation average = 0
	minimum = 0
	maximum = 0
Injected packet rate average = 0.031125
	minimum = 0 (at node 1)
	maximum = 0.09 (at node 11)
Accepted packet rate average = 0.031375
	minimum = 0 (at node 0)
	maximum = 0.502 (at node 11)
Injected flit rate average = 0.031125
	minimum = 0 (at node 1)
	maximum = 0.09 (at node 11)
Accepted flit rate average= 0.031375
	minimum = 0 (at node 0)
	maximum = 0.502 (at node 11)
Injected packet length average = 1
Accepted packet length average = 1
Total in-flight flits = 102 (0 measured)
latency change    = 0.562897
throughput change = 0.0159363
Average latency for class 0 exceeded 500 cycles. Aborting simulation.
Too many sample periods needed to converge
Simulation unstable, ending ...
Total run time 0.0263808
