BEGIN Configuration File: /tmp/tmpu4t8__w8.cfg
topology = mesh;
k = 4;
n = 2;
routing_function = planar_adapt;
num_vcs = 4;
vc_buf_size = 4;
wait_for_tail_credit = 1;
vc_allocator = islip;
sw_allocator = islip;
alloc_iters = 1;
credit_delay = 2;
routing_delay = 1;
vc_alloc_delay = 1;
sw_alloc_delay = 1;
input_speedup = 2;
output_speedup = 1;
internal_speedup = 1.0;
traffic = uniform;
packet_size = 1;
sim_type = latency;
injection_rate = 0.01;
warmup_periods = 3;
sample_period = 500;
sim_count = 50;
seed = 1;
link_failures = 7;
fail_seed = 303;

END Configuration File: /tmp/tmpu4t8__w8.cfg
failure at node 9, channel 2 (1/7)
failure at node 15, channel 3 (2/7)
failure at node 2, channel 2 (3/7)
failure at node 7, channel 3 (4/7)
failure at node 3, channel 2 (5/7)
failure at node 10, channel 0 (6/7)
failure at node 6, channel 1 (7/7)
Class 0:
Packet latency average = 24.3059
	minimum = 7
	maximum = 82
Network latency average = 24.3059
	minimum = 7
	maximum = 82
Slowest packet = 35
Flit latency average = 24.3059
	minimum = 7
	maximum = 82
Slowest flit = 35
Fragmentation average = 0
	minimum = 0
	maximum = 0
Injected packet rate average = 0.011125
	minimum = 0.006 (at node 1)
	maximum = 0.022 (at node 7)
Accepted packet rate average = 0.010625
	minimum = 0.004 (at node 0)
	maximum = 0.018 (at node 1)
Injected flit rate average = 0.011125
	minimum = 0.006 (at node 1)
	maximum = 0.022 (at node 7)
Accepted flit rate average= 0.010625
	minimum = 0.004 (at node 0)
	maximum = 0.018 (at node 1)
Injected packet length average = 1
Accepted packet length average = 1
Total in-flight flits = 4 (0 measured)
latency change    = 1
throughput change = 1
Class 0:
Packet latency average = 26.2994
	minimum = 7
	maximum = 137
Network latency average = 26.2994
	minimum = 7
	maximum = 137
Slowest packet = 141
Flit latency average = 26.2994
	minimum = 7
	maximum = 137
Slowest flit = 141
Fragmentation average = 0
	minimum = 0
	maximum = 0
Injected packet rate average = 0.0108125
	minimum = 0.006 (at node 2)
	maximum = 0.019 (at node 7)
Accepted packet rate average = 0.0104375
	minimum = 0.005 (at node 6)
	maximum = 0.016 (at node 15)
Injected flit rate average = 0.0108125
	minimum = 0.006 (at node 2)
	maximum = 0.019 (at node 7)
Accepted flit rate average= 0.0104375
	minimum = 0.005 (at node 6)
	maximum = 0.016 (at node 15)
Injected packet length average = 1
Accepted packet length average = 1
Total in-flight flits = 6 (0 measured)
latency change    = 0.0758009
throughput change = 0.0179641
Class 0:
Packet latency average = 27.1667
	minimum = 7
	maximum = 147
Network latency average = 27.1667
	minimum = 7
	maximum = 147
Slowest packet = 162
Flit latency average = 27.1667
	minimum = 7
	maximum = 147
Slowest flit = 162
Fragmentation average = 0
	minimum = 0
	maximum = 0
Injected packet rate average = 0.009
	minimum = 0.002 (at node 6)
	maximum = 0.026 (at node 12)
Accepted packet rate average = 0.009
	minimum = 0.002 (at node 2)
	maximum = 0.016 (at node 14)
Injected flit rate average = 0.009
	minimum = 0.002 (at node 6)
	maximum = 0.026 (at node 12)
Accepted flit rate average= 0.009
	minimum = 0.002 (at node 2)
	maximum = 0.016 (at node 14)
Injected packet length average = 1
Accepted packet length average = 1
Total in-flight flits = 6 (0 measured)
latency change    = 0.0319239
throughput change = 0.159722
Warmed up ...Time used is 1500 cycles
Class 0:
Packet latency average = 26.3861
	minimum = 7
	maximum = 120
Network latency average = 26.3861
	minimum = 7
	maximum = 120
Slowest packet = 281
Flit latency average = 26.9626
	minimum = 7
	maximum = 120
Slowest flit = 281
Fragmentation average = 0
	minimum = 0
	maximum = 0
Injected packet rate average = 0.0135
	minimum = 0.006 (at node 2)
	maximum = 0.026 (at node 8)
Accepted packet rate average = 0.013375
	minimum = 0.006 (at node 1)
	maximum = 0.022 (at node 11)
Injected flit rate average = 0.0135
	minimum = 0.006 (at node 2)
	maximum = 0.026 (at node 8)
Accepted flit rate average= 0.013375
	minimum = 0.006 (at node 1)
	maximum = 0.022 (at node 11)
Injected packet length average = 1
Accepted packet length average = 1
Total in-flight flits = 7 (7 measured)
latency change    = 0.029581
throughput change = 0.327103
Class 0:
Packet latency average = 25.7713
	minimum = 7
	maximum = 120
Network latency average = 25.7713
	minimum = 7
	maximum = 120
Slowest packet = 281
Flit latency average = 26.1082
	minimum = 7
	maximum = 120
Slowest flit = 281
Fragmentation average = 0
	minimum = 0
	maximum = 0
Injected packet rate average = 0.0119375
	minimum = 0.007 (at node 0)
	maximum = 0.019 (at node 8)
Accepted packet rate average = 0.012125
	minimum = 0.008 (at node 2)
	maximum = 0.019 (at node 3)
Injected flit rate average = 0.0119375
	minimum = 0.007 (at node 0)
	maximum = 0.019 (at node 8)
Accepted flit rate average= 0.012125
	minimum = 0.008 (at node 2)
	maximum = 0.019 (at node 3)
Injected packet length average = 1
Accepted packet length average = 1
Total in-flight flits = 3 (3 measured)
latency change    = 0.0238584
throughput change = 0.103093
Class 0:
Packet latency average = 25.7547
	minimum = 7
	maximum = 120
Network latency average = 25.7547
	minimum = 7
	maximum = 120
Slowest packet = 281
Flit latency average = 25.9963
	minimum = 7
	maximum = 120
Slowest flit = 281
Fragmentation average = 0
	minimum = 0
	maximum = 0
Injected packet rate average = 0.0112083
	minimum = 0.006 (at node 0)
	maximum = 0.0153333 (at node 8)
Accepted packet rate average = 0.0112917
	minimum = 0.00666667 (at node 7)
	maximum = 0.016 (at node 3)
Injected flit rate average = 0.0112083
	minimum = 0.006 (at node 0)
	maximum = 0.0153333 (at node 8)
Accepted flit rate average= 0.0112917
	minimum = 0.00666667 (at node 7)
	maximum = 0.016 (at node 3)
Injected packet length average = 1
Accepted packet length average = 1
Total in-flight flits = 4 (4 measured)
latency change    = 0.000642974
throughput change = 0.0738007
Class 0:
Packet latency average = 25.0801
	minimum = 7
	maximum = 120
Network latency average = 25.0801
	minimum = 7
	maximum = 120
Slowest packet = 281
Flit latency average = 25.2828
	minimum = 7
	maximum = 120
Slowest flit = 281
Fragmentation average = 0
	minimum = 0
	maximum = 0
Injected packet rate average = 0.0106875
	minimum = 0.0055 (at node 0)
	maximum = 0.0135 (at node 8)
Accepted packet rate average = 0.0107188
	minimum = 0.0065 (at node 7)
	maximum = 0.014 (at node 9)
Injected flit rate average = 0.0106875
	minimum = 0.0055 (at node 0)
	maximum = 0.0135 (at node 8)
Accepted flit rate average= 0.0107188
	minimum = 0.0065 (at node 7)
	maximum = 0.014 (at node 9)
Injected packet length average = 1
Accepted packet length average = 1
Total in-flight flits = 5 (5 measured)
latency change    = 0.0268977
throughput change = 0.05345
Class 0:
Packet latency average = 25.1655
	minimum = 7
	maximum = 120
Network latency average = 25.1655
	minimum = 7
	maximum = 120
Slowest packet = 281
Flit latency average = 25.3286
	minimum = 7
	maximum = 120
Slowest flit = 281
Fragmentation average = 0
	minimum = 0
	maximum = 0
Injected packet rate average = 0.010475
	minimum = 0.006 (at node 0)
	maximum = 0.0132 (at node 6)
Accepted packet rate average = 0.010575
	minimum = 0.0072 (at node 7)
	maximum = 0.0136 (at node 9)
Injected flit rate average = 0.010475
	minimum = 0.006 (at node 0)
	maximum = 0.0132 (at node 6)
Accepted flit rate average= 0.010575
	minimum = 0.0072 (at node 7)
	maximum = 0.0136 (at node 9)
Injected packet length average = 1
Accepted packet length average = 1
Total in-flight flits = 2 (2 measured)
latency change    = 0.00339151
throughput change = 0.0135934
Class 0:
Packet latency average = 25.628
	minimum = 7
	maximum = 137
Network latency average = 25.628
	minimum = 7
	maximum = 137
Slowest packet = 686
Flit latency average = 25.7589
	minimum = 7
	maximum = 137
Slowest flit = 686
Fragmentation average = 0
	minimum = 0
	maximum = 0
Injected packet rate average = 0.0105208
	minimum = 0.00733333 (at node 0)
	maximum = 0.0133333 (at node 14)
Accepted packet rate average = 0.0105417
	minimum = 0.00833333 (at node 5)
	maximum = 0.0123333 (at node 4)
Injected flit rate average = 0.0105208
	minimum = 0.00733333 (at node 0)
	maximum = 0.0133333 (at node 14)
Accepted flit rate average= 0.0105417
	minimum = 0.00833333 (at node 5)
	maximum = 0.0123333 (at node 4)
Injected packet length average = 1
Accepted packet length average = 1
Total in-flight flits = 5 (5 measured)
latency change    = 0.0180479
throughput change = 0.00316206
Class 0:
Packet latency average = 25.5966
	minimum = 7
	maximum = 137
Network latency average = 25.5966
	minimum = 7
	maximum = 137
Slowest packet = 686
Flit latency average = 25.7099
	minimum = 7
	maximum = 137
Slowest flit = 686
Fragmentation average = 0
	minimum = 0
	maximum = 0
Injected packet rate average = 0.0105
	minimum = 0.00742857 (at node 10)
	maximum = 0.0131429 (at node 1)
Accepted packet rate average = 0.0104643
	minimum = 0.00771429 (at node 7)
	maximum = 0.0128571 (at node 14)
Injected flit rate average = 0.0105
	minimum = 0.00742857 (at node 10)
	maximum = 0.0131429 (at node 1)
Accepted flit rate average= 0.0104643
	minimum = 0.00771429 (at node 7)
	maximum = 0.0128571 (at node 14)
Injected packet length average = 1
Accepted packet length average = 1
Total in-flight flits = 8 (8 measured)
latency change    = 0.00122861
throughput change = 0.00739477
Draining all recorded packets ...
Draining remaining packets ...
Time taken is 5088 cycles
Class 0:
Packet latency average = 27.6154
	minimum = 7
	maximum = 124
Network latency average = 27.6154
	minimum = 7
	maximum = 124
Slowest packet = 884
Flit latency average = 27.6154
	minimum = 7
	maximum = 124
Slowest flit = 884
Fragmentation average = 0
	minimum = 0
	maximum = 0
Injected packet rate average = 0.008625
	minimum = 0.004 (at node 1)
	maximum = 0.016 (at node 10)
Accepted packet rate average = 0.008125
	minimum = 0.002 (at node 0)
	maximum = 0.016 (at node 9)
Injected flit rate average = 0.008625
	minimum = 0.004 (at node 1)
	maximum = 0.016 (at node 10)
Accepted flit rate average= 0.008125
	minimum = 0.002 (at node 0)
	maximum = 0.016 (at node 9)
Injected packet length average = 1
Accepted packet length average = 1
Total in-flight flits = 4 (0 measured)
latency change    = 1
throughput change = 1
Class 0:
Packet latency average = 27.4275
	minimum = 7
	maximum = 124
Network latency average = 27.4275
	minimum = 7
	maximum = 124
Slowest packet = 884
Flit latency average = 27.4275
	minimum = 7
	maximum = 124
Slowest flit = 884
Fragmentation average = 0
	minimum = 0
	maximum = 0
Injected packet rate average = 0.0085625
	minimum = 0.004 (at node 13)
	maximum = 0.013 (at node 0)
Accepted packet rate average = 0.0081875
	minimum = 0.004 (at node 0)
	maximum = 0.016 (at node 9)
Injected flit rate average = 0.0085625
	minimum = 0.004 (at node 13)
	maximum = 0.013 (at node 0)
Accepted flit rate average= 0.0081875
	minimum = 0.004 (at node 0)
	maximum = 0.016 (at node 9)
Injected packet length average = 1
Accepted packet length average = 1
Total in-flight flits = 6 (0 measured)
latency change    = 0.00685093
throughput change = 0.00763359
Class 0:
Packet latency average = 26.4324
	minimum = 7
	maximum = 77
Network latency average = 26.4324
	minimum = 7
	maximum = 77
Slowest packet = 1000
Flit latency average = 26.4324
	minimum = 7
	maximum = 77
Slowest flit = 1000
Fragmentation average = 0
	minimum = 0
	maximum = 0
Injected packet rate average = 0.008875
	minimum = 0.002 (at node 1)
	maximum = 0.016 (at node 10)
Accepted packet rate average = 0.00925
	minimum = 0.004 (at node 9)
	maximum = 0.018 (at node 10)
Injected flit rate average = 0.008875
	minimum = 0.002 (at node 1)
	maximum = 0.016 (at node 10)
Accepted flit rate average= 0.00925
	minimum = 0.004 (at node 9)
	maximum = 0.018 (at node 10)
Injected packet length average = 1
Accepted packet length average = 1
Total in-flight flits = 3 (0 measured)
latency change    = 0.037645
throughput change = 0.114865
Warmed up ...Time used is 1500 cycles
Class 0:
Packet latency average = 24.0429
	minimum = 7
	maximum = 78
Network latency average = 24.0429
	minimum = 7
	maximum = 78
Slowest packet = 1101
Flit latency average = 24.2329
	minimum = 7
	maximum = 78
Slowest flit = 1101
Fragmentation average = 0
	minimum = 0
	maximum = 0
Injected packet rate average = 0.008875
	minimum = 0.002 (at node 0)
	maximum = 0.02 (at node 6)
Accepted packet rate average = 0.009125
	minimum = 0.004 (at node 10)
	maximum = 0.016 (at node 5)
Injected flit rate average = 0.008875
	minimum = 0.002 (at node 0)
	maximum = 0.02 (at node 6)
Accepted flit rate average= 0.009125
	minimum = 0.004 (at node 10)
	maximum = 0.016 (at node 5)
Injected packet length average = 1
Accepted packet length average = 1
Total in-flight flits = 1 (1 measured)
latency change    = 0.0993882
throughput change = 0.0136986
Class 0:
Packet latency average = 25.1733
	minimum = 7
	maximum = 162
Network latency average = 25.1733
	minimum = 7
	maximum = 162
Slowest packet = 1169
Flit latency average = 25.2418
	minimum = 7
	maximum = 162
Slowest flit = 1169
Fragmentation average = 0
	minimum = 0
	maximum = 0
Injected packet rate average = 0.009625
	minimum = 0.004 (at node 8)
	maximum = 0.016 (at node 4)
Accepted packet rate average = 0.0095625
	minimum = 0.004 (at node 10)
	maximum = 0.015 (at node 11)
Injected flit rate average = 0.009625
	minimum = 0.004 (at node 8)
	maximum = 0.016 (at node 4)
Accepted flit rate average= 0.0095625
	minimum = 0.004 (at node 10)
	maximum = 0.015 (at node 11)
Injected packet length average = 1
Accepted packet length average = 1
Total in-flight flits = 4 (4 measured)
latency change    = 0.0449077
throughput change = 0.0457516
Class 0:
Packet latency average = 24.1792
	minimum = 7
	maximum = 162
Network latency average = 24.1792
	minimum = 7
	maximum = 162
Slowest packet = 1169
Flit latency average = 24.2346
	minimum = 7
	maximum = 162
Slowest flit = 1169
Fragmentation average = 0
	minimum = 0
	maximum = 0
Injected packet rate average = 0.0101667
	minimum = 0.006 (at node 1)
	maximum = 0.016 (at node 4)
Accepted packet rate average = 0.010125
	minimum = 0.006 (at node 12)
	maximum = 0.0146667 (at node 5)
Injected flit rate average = 0.0101667
	minimum = 0.006 (at node 1)
	maximum = 0.016 (at node 4)
Accepted flit rate average= 0.010125
	minimum = 0.006 (at node 12)
	maximum = 0.0146667 (at node 5)
Injected packet length average = 1
Accepted packet length average = 1
Total in-flight flits = 4 (4 measured)
latency change    = 0.0411167
throughput change = 0.0555556
Class 0:
Packet latency average = 24.9329
	minimum = 7
	maximum = 162
Network latency average = 24.9329
	minimum = 7
	maximum = 162
Slowest packet = 1169
Flit latency average = 24.9668
	minimum = 7
	maximum = 162
Slowest flit = 1169
Fragmentation average = 0
	minimum = 0
	maximum = 0
Injected packet rate average = 0.0104375
	minimum = 0.007 (at node 1)
	maximum = 0.0145 (at node 4)
Accepted packet rate average = 0.0103438
	minimum = 0.008 (at node 10)
	maximum = 0.013 (at node 5)
Injected flit rate average = 0.0104375
	minimum = 0.007 (at node 1)
	maximum = 0.0145 (at node 4)
Accepted flit rate average= 0.0103438
	minimum = 0.008 (at node 10)
	maximum = 0.013 (at node 5)
Injected packet length average = 1
Accepted packet length average = 1
Total in-flight flits = 6 (6 measured)
latency change    = 0.0302315
throughput change = 0.021148
Class 0:
Packet latency average = 25.1563
	minimum = 7
	maximum = 222
Network latency average = 25.1563
	minimum = 7
	maximum = 222
Slowest packet = 1406
Flit latency average = 25.1823
	minimum = 7
	maximum = 222
Slowest flit = 1406
Fragmentation average = 0
	minimum = 0
	maximum = 0
Injected packet rate average = 0.01015
	minimum = 0.0072 (at node 1)
	maximum = 0.0132 (at node 4)
Accepted packet rate average = 0.01015
	minimum = 0.0076 (at node 10)
	maximum = 0.0152 (at node 9)
Injected flit rate average = 0.01015
	minimum = 0.0072 (at node 1)
	maximum = 0.0132 (at node 4)
Accepted flit rate average= 0.01015
	minimum = 0.0076 (at node 10)
	maximum = 0.0152 (at node 9)
Injected packet length average = 1
Accepted packet length average = 1
Total in-flight flits = 3 (3 measured)
latency change    = 0.0088805
throughput change = 0.0190887
Class 0:
Packet latency average = 25.9347
	minimum = 7
	maximum = 222
Network latency average = 25.9347
	minimum = 7
	maximum = 222
Slowest packet = 1406
Flit latency average = 25.9519
	minimum = 7
	maximum = 222
Slowest flit = 1406
Fragmentation average = 0
	minimum = 0
	maximum = 0
Injected packet rate average = 0.0100417
	minimum = 0.00733333 (at node 8)
	maximum = 0.0123333 (at node 6)
Accepted packet rate average = 0.00995833
	minimum = 0.007 (at node 10)
	maximum = 0.0133333 (at node 9)
Injected flit rate average = 0.0100417
	minimum = 0.00733333 (at node 8)
	maximum = 0.0123333 (at node 6)
Accepted flit rate average= 0.00995833
	minimum = 0.007 (at node 10)
	maximum = 0.0133333 (at node 9)
Injected packet length average = 1
Accepted packet length average = 1
Total in-flight flits = 7 (7 measured)
latency change    = 0.0300142
throughput change = 0.0192469
Draining all recorded packets ...
Draining remaining packets ...
Time taken is 4520 cycles
Class 0:
Packet latency average = 23.3882
	minimum = 7
	maximum = 87
Network latency average = 23.3882
	minimum = 7
	maximum = 87
Slowest packet = 1594
Flit latency average = 23.3882
	minimum = 7
	maximum = 87
Slowest flit = 1594
Fragmentation average = 0
	minimum = 0
	maximum = 0
Injected packet rate average = 0.011
	minimum = 0.006 (at node 0)
	maximum = 0.02 (at node 2)
Accepted packet rate average = 0.010625
	minimum = 0.004 (at node 8)
	maximum = 0.016 (at node 12)
Injected flit rate average = 0.011
	minimum = 0.006 (at node 0)
	maximum = 0.02 (at node 2)
Accepted flit rate average= 0.010625
	minimum = 0.004 (at node 8)
	maximum = 0.016 (at node 12)
Injected packet length average = 1
Accepted packet length average = 1
Total in-flight flits = 3 (0 measured)
latency change    = 1
throughput change = 1
Class 0:
Packet latency average = 24.9824
	minimum = 7
	maximum = 87
Network latency average = 24.9824
	minimum = 7
	maximum = 87
Slowest packet = 1594
Flit latency average = 24.9824
	minimum = 7
	maximum = 87
Slowest flit = 1594
Fragmentation average = 0
	minimum = 0
	maximum = 0
Injected packet rate average = 0.0110625
	minimum = 0.006 (at node 8)
	maximum = 0.018 (at node 6)
Accepted packet rate average = 0.010625
	minimum = 0.005 (at node 5)
	maximum = 0.016 (at node 15)
Injected flit rate average = 0.0110625
	minimum = 0.006 (at node 8)
	maximum = 0.018 (at node 6)
Accepted flit rate average= 0.010625
	minimum = 0.005 (at node 5)
	maximum = 0.016 (at node 15)
Injected packet length average = 1
Accepted packet length average = 1
Total in-flight flits = 7 (0 measured)
latency change    = 0.0638097
throughput change = 0
Class 0:
Packet latency average = 24.7
	minimum = 12
	maximum = 57
Network latency average = 24.7
	minimum = 12
	maximum = 57
Slowest packet = 1767
Flit latency average = 24.7
	minimum = 12
	maximum = 57
Slowest flit = 1767
Fragmentation average = 0
	minimum = 0
	maximum = 0
Injected packet rate average = 0.008625
	minimum = 0.002 (at node 0)
	maximum = 0.016 (at node 14)
Accepted packet rate average = 0.00875
	minimum = 0.006 (at node 1)
	maximum = 0.014 (at node 7)
Injected flit rate average = 0.008625
	minimum = 0.002 (at node 0)
	maximum = 0.016 (at node 14)
Accepted flit rate average= 0.00875
	minimum = 0.006 (at node 1)
	maximum = 0.014 (at node 7)
Injected packet length average = 1
Accepted packet length average = 1
Total in-flight flits = 6 (0 measured)
latency change    = 0.0114313
throughput change = 0.214286
Warmed up ...Time used is 1500 cycles
Class 0:
Packet latency average = 24.6719
	minimum = 7
	maximum = 142
Network latency average = 24.6719
	minimum = 7
	maximum = 142
Slowest packet = 1818
Flit latency average = 24.8714
	minimum = 7
	maximum = 142
Slowest flit = 1818
Fragmentation average = 0
	minimum = 0
	maximum = 0
Injected packet rate average = 0.008625
	minimum = 0.002 (at node 3)
	maximum = 0.02 (at node 9)
Accepted packet rate average = 0.00875
	minimum = 0.002 (at node 5)
	maximum = 0.014 (at node 0)
Injected flit rate average = 0.008625
	minimum = 0.002 (at node 3)
	maximum = 0.02 (at node 9)
Accepted flit rate average= 0.00875
	minimum = 0.002 (at node 5)
	maximum = 0.014 (at node 0)
Injected packet length average = 1
Accepted packet length average = 1
Total in-flight flits = 5 (5 measured)
latency change    = 0.00113996
throughput change = 0
Class 0:
Packet latency average = 24.1024
	minimum = 7
	maximum = 142
Network latency average = 24.1024
	minimum = 7
	maximum = 142
Slowest packet = 1818
Flit latency average = 24.2331
	minimum = 7
	maximum = 142
Slowest flit = 1818
Fragmentation average = 0
	minimum = 0
	maximum = 0
Injected packet rate average = 0.00825
	minimum = 0.005 (at node 3)
	maximum = 0.017 (at node 9)
Accepted packet rate average = 0.0083125
	minimum = 0.004 (at node 5)
	maximum = 0.013 (at node 0)
Injected flit rate average = 0.00825
	minimum = 0.005 (at node 3)
	maximum = 0.017 (at node 9)
Accepted flit rate average= 0.0083125
	minimum = 0.004 (at node 5)
	maximum = 0.013 (at node 0)
Injected packet length average = 1
Accepted packet length average = 1
Total in-flight flits = 5 (5 measured)
latency change    = 0.0236289
throughput change = 0.0526316
Class 0:
Packet latency average = 24.915
	minimum = 7
	maximum = 142
Network latency average = 24.915
	minimum = 7
	maximum = 142
Slowest packet = 1818
Flit latency average = 24.9757
	minimum = 7
	maximum = 142
Slowest flit = 1818
Fragmentation average = 0
	minimum = 0
	maximum = 0
Injected packet rate average = 0.0085
	minimum = 0.00533333 (at node 0)
	maximum = 0.014 (at node 9)
Accepted packet rate average = 0.00858333
	minimum = 0.00666667 (at node 2)
	maximum = 0.0133333 (at node 11)
Injected flit rate average = 0.0085
	minimum = 0.00533333 (at node 0)
	maximum = 0.014 (at node 9)
Accepted flit rate average= 0.00858333
	minimum = 0.00666667 (at node 2)
	maximum = 0.0133333 (at node 11)
Injected packet length average = 1
Accepted packet length average = 1
Total in-flight flits = 4 (4 measured)
latency change    = 0.0326164
throughput change = 0.0315534
Class 0:
Packet latency average = 24.8655
	minimum = 7
	maximum = 147
Network latency average = 24.8655
	minimum = 7
	maximum = 147
Slowest packet = 1975
Flit latency average = 24.9088
	minimum = 7
	maximum = 147
Slowest flit = 1975
Fragmentation average = 0
	minimum = 0
	maximum = 0
Injected packet rate average = 0.0091875
	minimum = 0.0055 (at node 0)
	maximum = 0.0125 (at node 8)
Accepted packet rate average = 0.00925
	minimum = 0.0065 (at node 7)
	maximum = 0.013 (at node 0)
Injected flit rate average = 0.0091875
	minimum = 0.0055 (at node 0)
	maximum = 0.0125 (at node 8)
Accepted flit rate average= 0.00925
	minimum = 0.0065 (at node 7)
	maximum = 0.013 (at node 0)
Injected packet length average = 1
Accepted packet length average = 1
Total in-flight flits = 4 (4 measured)
latency change    = 0.00199002
throughput change = 0.0720721
Class 0:
Packet latency average = 24.1575
	minimum = 7
	maximum = 147
Network latency average = 24.1575
	minimum = 7
	maximum = 147
Slowest packet = 1975
Flit latency average = 24.2038
	minimum = 7
	maximum = 147
Slowest flit = 1975
Fragmentation average = 0
	minimum = 0
	maximum = 0
Injected packet rate average = 0.0091
	minimum = 0.006 (at node 14)
	maximum = 0.0116 (at node 4)
Accepted packet rate average = 0.0092
	minimum = 0.0056 (at node 7)
	maximum = 0.012 (at node 0)
Injected flit rate average = 0.0091
	minimum = 0.006 (at node 14)
	maximum = 0.0116 (at node 4)
Accepted flit rate average= 0.0092
	minimum = 0.0056 (at node 7)
	maximum = 0.012 (at node 0)
Injected packet length average = 1
Accepted packet length average = 1
Total in-flight flits = 2 (2 measured)
latency change    = 0.0293101
throughput change = 0.00543478
Class 0:
Packet latency average = 24.2447
	minimum = 7
	maximum = 168
Network latency average = 24.2447
	minimum = 7
	maximum = 168
Slowest packet = 2131
Flit latency average = 24.2834
	minimum = 7
	maximum = 168
Slowest flit = 2131
Fragmentation average = 0
	minimum = 0
	maximum = 0
Injected packet rate average = 0.0088125
	minimum = 0.00666667 (at node 0)
	maximum = 0.0106667 (at node 4)
Accepted packet rate average = 0.00889583
	minimum = 0.00566667 (at node 7)
	maximum = 0.011 (at node 0)
Injected flit rate average = 0.0088125
	minimum = 0.00666667 (at node 0)
	maximum = 0.0106667 (at node 4)
Accepted flit rate average= 0.00889583
	minimum = 0.00566667 (at node 7)
	maximum = 0.011 (at node 0)
Injected packet length average = 1
Accepted packet length average = 1
Total in-flight flits = 2 (2 measured)
latency change    = 0.00359655
throughput change = 0.034192
Class 0:
Packet latency average = 24.8061
	minimum = 7
	maximum = 172
Network latency average = 24.8061
	minimum = 7
	maximum = 172
Slowest packet = 2212
Flit latency average = 24.8323
	minimum = 7
	maximum = 172
Slowest flit = 2212
Fragmentation average = 0
	minimum = 0
	maximum = 0
Injected packet rate average = 0.00889286
	minimum = 0.00657143 (at node 14)
	maximum = 0.0108571 (at node 8)
Accepted packet rate average = 0.00894643
	minimum = 0.006 (at node 7)
	maximum = 0.0114286 (at node 0)
Injected flit rate average = 0.00889286
	minimum = 0.00657143 (at node 14)
	maximum = 0.0108571 (at node 8)
Accepted flit rate average= 0.00894643
	minimum = 0.006 (at node 7)
	maximum = 0.0114286 (at node 0)
Injected packet length average = 1
Accepted packet length average = 1
Total in-flight flits = 3 (3 measured)
latency change    = 0.0226318
throughput change = 0.00565536
Draining all recorded packets ...
Draining remaining packets ...
Time taken is 5047 cycles
Class 0:
Packet latency average = 23.2055
	minimum = 7
	maximum = 82
Network latency average = 23.2055
	minimum = 7
	maximum = 82
Slowest packet = 2301
Flit latency average = 23.2055
	minimum = 7
	maximum = 82
Slowest flit = 2301
Fragmentation average = 0
	minimum = 0
	maximum = 0
Injected packet rate average = 0.009625
	minimum = 0 (at node 5)
	maximum = 0.016 (at node 14)
Accepted packet rate average = 0.009125
	minimum = 0.002 (at node 3)
	maximum = 0.018 (at node 6)
Injected flit rate average = 0.009625
	minimum = 0 (at node 5)
	maximum = 0.016 (at node 14)
Accepted flit rate average= 0.009125
	minimum = 0.002 (at node 3)
	maximum = 0.018 (at node 6)
Injected packet length average = 1
Accepted packet length average = 1
Total in-flight flits = 4 (0 measured)
latency change    = 1
throughput change = 1
Class 0:
Packet latency average = 26.1234
	minimum = 7
	maximum = 213
Network latency average = 26.1234
	minimum = 7
	maximum = 213
Slowest packet = 2371
Flit latency average = 26.1234
	minimum = 7
	maximum = 213
Slowest flit = 2371
Fragmentation average = 0
	minimum = 0
	maximum = 0
Injected packet rate average = 0.009875
	minimum = 0.005 (at node 5)
	maximum = 0.013 (at node 0)
Accepted packet rate average = 0.009625
	minimum = 0.003 (at node 9)
	maximum = 0.018 (at node 5)
Injected flit rate average = 0.009875
	minimum = 0.005 (at node 5)
	maximum = 0.013 (at node 0)
Accepted flit rate average= 0.009625
	minimum = 0.003 (at node 9)
	maximum = 0.018 (at node 5)
Injected packet length average = 1
Accepted packet length average = 1
Total in-flight flits = 4 (0 measured)
latency change    = 0.111697
throughput change = 0.0519481
Class 0:
Packet latency average = 26.7949
	minimum = 7
	maximum = 92
Network latency average = 26.7949
	minimum = 7
	maximum = 92
Slowest packet = 2470
Flit latency average = 26.7949
	minimum = 7
	maximum = 92
Slowest flit = 2470
Fragmentation average = 0
	minimum = 0
	maximum = 0
Injected packet rate average = 0.009375
	minimum = 0.004 (at node 9)
	maximum = 0.014 (at node 1)
Accepted packet rate average = 0.00975
	minimum = 0.004 (at node 14)
	maximum = 0.02 (at node 5)
Injected flit rate average = 0.009375
	minimum = 0.004 (at node 9)
	maximum = 0.014 (at node 1)
Accepted flit rate average= 0.00975
	minimum = 0.004 (at node 14)
	maximum = 0.02 (at node 5)
Injected packet length average = 1
Accepted packet length average = 1
Total in-flight flits = 1 (0 measured)
latency change    = 0.0250606
throughput change = 0.0128205
Warmed up ...Time used is 1500 cycles
Class 0:
Packet latency average = 21.6571
	minimum = 7
	maximum = 54
Network latency average = 21.6571
	minimum = 7
	maximum = 54
Slowest packet = 2566
Flit latency average = 21.5915
	minimum = 7
	maximum = 54
Slowest flit = 2566
Fragmentation average = 0
	minimum = 0
	maximum = 0
Injected packet rate average = 0.00925
	minimum = 0.004 (at node 0)
	maximum = 0.016 (at node 15)
Accepted packet rate average = 0.008875
	minimum = 0.002 (at node 0)
	maximum = 0.016 (at node 6)
Injected flit rate average = 0.00925
	minimum = 0.004 (at node 0)
	maximum = 0.016 (at node 15)
Accepted flit rate average= 0.008875
	minimum = 0.002 (at node 0)
	maximum = 0.016 (at node 6)
Injected packet length average = 1
Accepted packet length average = 1
Total in-flight flits = 4 (4 measured)
latency change    = 0.23723
throughput change = 0.0985915
Class 0:
Packet latency average = 24.5399
	minimum = 7
	maximum = 102
Network latency average = 24.5399
	minimum = 7
	maximum = 102
Slowest packet = 2586
Flit latency average = 24.4939
	minimum = 7
	maximum = 102
Slowest flit = 2586
Fragmentation average = 0
	minimum = 0
	maximum = 0
Injected packet rate average = 0.0104375
	minimum = 0.006 (at node 3)
	maximum = 0.016 (at node 9)
Accepted packet rate average = 0.01025
	minimum = 0.004 (at node 15)
	maximum = 0.019 (at node 6)
Injected flit rate average = 0.0104375
	minimum = 0.006 (at node 3)
	maximum = 0.016 (at node 9)
Accepted flit rate average= 0.01025
	minimum = 0.004 (at node 15)
	maximum = 0.019 (at node 6)
Injected packet length average = 1
Accepted packet length average = 1
Total in-flight flits = 4 (4 measured)
latency change    = 0.117471
throughput change = 0.134146
Class 0:
Packet latency average = 24.3017
	minimum = 7
	maximum = 102
Network latency average = 24.3017
	minimum = 7
	maximum = 102
Slowest packet = 2586
Flit latency average = 24.2704
	minimum = 7
	maximum = 102
Slowest flit = 2586
Fragmentation average = 0
	minimum = 0
	maximum = 0
Injected packet rate average = 0.00979167
	minimum = 0.006 (at node 3)
	maximum = 0.014 (at node 15)
Accepted packet rate average = 0.00970833
	minimum = 0.00533333 (at node 15)
	maximum = 0.0153333 (at node 6)
Injected flit rate average = 0.00979167
	minimum = 0.006 (at node 3)
	maximum = 0.014 (at node 15)
Accepted flit rate average= 0.00970833
	minimum = 0.00533333 (at node 15)
	maximum = 0.0153333 (at node 6)
Injected packet length average = 1
Accepted packet length average = 1
Total in-flight flits = 3 (3 measured)
latency change    = 0.00979985
throughput change = 0.055794
Class 0:
Packet latency average = 23.8297
	minimum = 7
	maximum = 104
Network latency average = 23.8297
	minimum = 7
	maximum = 104
Slowest packet = 2747
Flit latency average = 23.8082
	minimum = 7
	maximum = 104
Slowest flit = 2747
Fragmentation average = 0
	minimum = 0
	maximum = 0
Injected packet rate average = 0.0100938
	minimum = 0.006 (at node 8)
	maximum = 0.0135 (at node 10)
Accepted packet rate average = 0.0099375
	minimum = 0.0055 (at node 15)
	maximum = 0.016 (at node 6)
Injected flit rate average = 0.0100938
	minimum = 0.006 (at node 8)
	maximum = 0.0135 (at node 10)
Accepted flit rate average= 0.0099375
	minimum = 0.0055 (at node 15)
	maximum = 0.016 (at node 6)
Injected packet length average = 1
Accepted packet length average = 1
Total in-flight flits = 6 (6 measured)
latency change    = 0.0198102
throughput change = 0.0230608
Class 0:
Packet latency average = 24.4
	minimum = 7
	maximum = 104
Network latency average = 24.4
	minimum = 7
	maximum = 104
Slowest packet = 2747
Flit latency average = 24.3811
	minimum = 7
	maximum = 104
Slowest flit = 2747
Fragmentation average = 0
	minimum = 0
	maximum = 0
Injected packet rate average = 0.009925
	minimum = 0.006 (at node 8)
	maximum = 0.0128 (at node 14)
Accepted packet rate average = 0.009775
	minimum = 0.0064 (at node 3)
	maximum = 0.0156 (at node 6)
Injected flit rate average = 0.009925
	minimum = 0.006 (at node 8)
	maximum = 0.0128 (at node 14)
Accepted flit rate average= 0.009775
	minimum = 0.0064 (at node 3)
	maximum = 0.0156 (at node 6)
Injected packet length average = 1
Accepted packet length average = 1
Total in-flight flits = 7 (7 measured)
latency change    = 0.0233749
throughput change = 0.016624
Class 0:
Packet latency average = 24.5267
	minimum = 7
	maximum = 104
Network latency average = 24.5267
	minimum = 7
	maximum = 104
Slowest packet = 2747
Flit latency average = 24.5113
	minimum = 7
	maximum = 104
Slowest flit = 2747
Fragmentation average = 0
	minimum = 0
	maximum = 0
Injected packet rate average = 0.0101667
	minimum = 0.00666667 (at node 8)
	maximum = 0.0136667 (at node 7)
Accepted packet rate average = 0.0101458
	minimum = 0.008 (at node 15)
	maximum = 0.014 (at node 6)
Injected flit rate average = 0.0101667
	minimum = 0.00666667 (at node 8)
	maximum = 0.0136667 (at node 7)
Accepted flit rate average= 0.0101458
	minimum = 0.008 (at node 15)
	maximum = 0.014 (at node 6)
Injected packet length average = 1
Accepted packet length average = 1
Total in-flight flits = 2 (2 measured)
latency change    = 0.00516779
throughput change = 0.0365503
Draining all recorded packets ...
Draining remaining packets ...
Time taken is 4543 cycles
Class 0:
Packet latency average = 24.2651
	minimum = 7
	maximum = 87
Network latency average = 24.2651
	minimum = 7
	maximum = 87
Slowest packet = 3060
Flit latency average = 24.2651
	minimum = 7
	maximum = 87
Slowest flit = 3060
Fragmentation average = 0
	minimum = 0
	maximum = 0
Injected packet rate average = 0.01075
	minimum = 0.004 (at node 3)
	maximum = 0.016 (at node 4)
Accepted packet rate average = 0.010375
	minimum = 0.002 (at node 9)
	maximum = 0.02 (at node 12)
Injected flit rate average = 0.01075
	minimum = 0.004 (at node 3)
	maximum = 0.016 (at node 4)
Accepted flit rate average= 0.010375
	minimum = 0.002 (at node 9)
	maximum = 0.02 (at node 12)
Injected packet length average = 1
Accepted packet length average = 1
Total in-flight flits = 3 (0 measured)
latency change    = 1
throughput change = 1
Class 0:
Packet latency average = 25.2593
	minimum = 7
	maximum = 111
Network latency average = 25.2593
	minimum = 7
	maximum = 111
Slowest packet = 3130
Flit latency average = 25.2593
	minimum = 7
	maximum = 111
Slowest flit = 3130
Fragmentation average = 0
	minimum = 0
	maximum = 0
Injected packet rate average = 0.0101875
	minimum = 0.003 (at node 3)
	maximum = 0.019 (at node 4)
Accepted packet rate average = 0.010125
	minimum = 0.005 (at node 7)
	maximum = 0.016 (at node 10)
Injected flit rate average = 0.0101875
	minimum = 0.003 (at node 3)
	maximum = 0.019 (at node 4)
Accepted flit rate average= 0.010125
	minimum = 0.005 (at node 7)
	maximum = 0.016 (at node 10)
Injected packet length average = 1
Accepted packet length average = 1
Total in-flight flits = 1 (0 measured)
latency change    = 0.0393598
throughput change = 0.0246914
Class 0:
Packet latency average = 26.3415
	minimum = 7
	maximum = 72
Network latency average = 26.3415
	minimum = 7
	maximum = 72
Slowest packet = 3228
Flit latency average = 26.3415
	minimum = 7
	maximum = 72
Slowest flit = 3228
Fragmentation average = 0
	minimum = 0
	maximum = 0
Injected packet rate average = 0.01075
	minimum = 0 (at node 0)
	maximum = 0.018 (at node 5)
Accepted packet rate average = 0.01025
	minimum = 0.002 (at node 11)
	maximum = 0.022 (at node 3)
Injected flit rate average = 0.01075
	minimum = 0 (at node 0)
	maximum = 0.018 (at node 5)
Accepted flit rate average= 0.01025
	minimum = 0.002 (at node 11)
	maximum = 0.022 (at node 3)
Injected packet length average = 1
Accepted packet length average = 1
Total in-flight flits = 5 (0 measured)
latency change    = 0.0410837
throughput change = 0.0121951
Warmed up ...Time used is 1500 cycles
Class 0:
Packet latency average = 23.6613
	minimum = 7
	maximum = 92
Network latency average = 23.6613
	minimum = 7
	maximum = 92
Slowest packet = 3285
Flit latency average = 24.4328
	minimum = 7
	maximum = 92
Slowest flit = 3285
Fragmentation average = 0
	minimum = 0
	maximum = 0
Injected packet rate average = 0.008375
	minimum = 0.004 (at node 4)
	maximum = 0.014 (at node 7)
Accepted packet rate average = 0.008375
	minimum = 0.002 (at node 10)
	maximum = 0.014 (at node 7)
Injected flit rate average = 0.008375
	minimum = 0.004 (at node 4)
	maximum = 0.014 (at node 7)
Accepted flit rate average= 0.008375
	minimum = 0.002 (at node 10)
	maximum = 0.014 (at node 7)
Injected packet length average = 1
Accepted packet length average = 1
Total in-flight flits = 5 (5 measured)
latency change    = 0.113272
throughput change = 0.223881
Class 0:
Packet latency average = 25
	minimum = 7
	maximum = 92
Network latency average = 25
	minimum = 7
	maximum = 92
Slowest packet = 3285
Flit latency average = 25.3041
	minimum = 7
	maximum = 92
Slowest flit = 3285
Fragmentation average = 0
	minimum = 0
	maximum = 0
Injected packet rate average = 0.0095625
	minimum = 0.004 (at node 6)
	maximum = 0.017 (at node 13)
Accepted packet rate average = 0.00925
	minimum = 0.006 (at node 1)
	maximum = 0.015 (at node 15)
Injected flit rate average = 0.0095625
	minimum = 0.004 (at node 6)
	maximum = 0.017 (at node 13)
Accepted flit rate average= 0.00925
	minimum = 0.006 (at node 1)
	maximum = 0.015 (at node 15)
Injected packet length average = 1
Accepted packet length average = 1
Total in-flight flits = 10 (10 measured)
latency change    = 0.0535484
throughput change = 0.0945946
Class 0:
Packet latency average = 25.9295
	minimum = 7
	maximum = 92
Network latency average = 25.9295
	minimum = 7
	maximum = 92
Slowest packet = 3285
Flit latency average = 26.0935
	minimum = 7
	maximum = 92
Slowest flit = 3285
Fragmentation average = 0
	minimum = 0
	maximum = 0
Injected packet rate average = 0.0102083
	minimum = 0.00666667 (at node 0)
	maximum = 0.0173333 (at node 13)
Accepted packet rate average = 0.01025
	minimum = 0.00733333 (at node 10)
	maximum = 0.0133333 (at node 7)
Injected flit rate average = 0.0102083
	minimum = 0.00666667 (at node 0)
	maximum = 0.0173333 (at node 13)
Accepted flit rate average= 0.01025
	minimum = 0.00733333 (at node 10)
	maximum = 0.0133333 (at node 7)
Injected packet length average = 1
Accepted packet length average = 1
Total in-flight flits = 4 (4 measured)
latency change    = 0.0358457
throughput change = 0.097561
Class 0:
Packet latency average = 25.2618
	minimum = 7
	maximum = 92
Network latency average = 25.2618
	minimum = 7
	maximum = 92
Slowest packet = 3285
Flit latency average = 25.3975
	minimum = 7
	maximum = 92
Slowest flit = 3285
Fragmentation average = 0
	minimum = 0
	maximum = 0
Injected packet rate average = 0.0100938
	minimum = 0.0065 (at node 14)
	maximum = 0.0145 (at node 13)
Accepted packet rate average = 0.0100625
	minimum = 0.0075 (at node 10)
	maximum = 0.0125 (at node 5)
Injected flit rate average = 0.0100938
	minimum = 0.0065 (at node 14)
	maximum = 0.0145 (at node 13)
Accepted flit rate average= 0.0100625
	minimum = 0.0075 (at node 10)
	maximum = 0.0125 (at node 5)
Injected packet length average = 1
Accepted packet length average = 1
Total in-flight flits = 6 (6 measured)
latency change    = 0.0264284
throughput change = 0.0186335
Class 0:
Packet latency average = 25.771
	minimum = 7
	maximum = 179
Network latency average = 25.771
	minimum = 7
	maximum = 179
Slowest packet = 3564
Flit latency average = 25.8744
	minimum = 7
	maximum = 179
Slowest flit = 3564
Fragmentation average = 0
	minimum = 0
	maximum = 0
Injected packet rate average = 0.009925
	minimum = 0.0056 (at node 14)
	maximum = 0.0124 (at node 13)
Accepted packet rate average = 0.00995
	minimum = 0.0072 (at node 12)
	maximum = 0.0128 (at node 7)
Injected flit rate average = 0.009925
	minimum = 0.0056 (at node 14)
	maximum = 0.0124 (at node 13)
Accepted flit rate average= 0.00995
	minimum = 0.0072 (at node 12)
	maximum = 0.0128 (at node 7)
Injected packet length average = 1
Accepted packet length average = 1
Total in-flight flits = 4 (4 measured)
latency change    = 0.0197572
throughput change = 0.0113065
Class 0:
Packet latency average = 25.357
	minimum = 7
	maximum = 179
Network latency average = 25.357
	minimum = 7
	maximum = 179
Slowest packet = 3564
Flit latency average = 25.4463
	minimum = 7
	maximum = 179
Slowest flit = 3564
Fragmentation average = 0
	minimum = 0
	maximum = 0
Injected packet rate average = 0.0101042
	minimum = 0.007 (at node 14)
	maximum = 0.0126667 (at node 13)
Accepted packet rate average = 0.0100833
	minimum = 0.00766667 (at node 8)
	maximum = 0.012 (at node 15)
Injected flit rate average = 0.0101042
	minimum = 0.007 (at node 14)
	maximum = 0.0126667 (at node 13)
Accepted flit rate average= 0.0100833
	minimum = 0.00766667 (at node 8)
	maximum = 0.012 (at node 15)
Injected packet length average = 1
Accepted packet length average = 1
Total in-flight flits = 6 (6 measured)
latency change    = 0.0163268
throughput change = 0.0132231
Draining all recorded packets ...
Draining remaining packets ...
Time taken is 4565 cycles
Class 0:
Packet latency average = 23.9429
	minimum = 7
	maximum = 72
Network latency average = 23.9429
	minimum = 7
	maximum = 72
Slowest packet = 3773
Flit latency average = 23.9429
	minimum = 7
	maximum = 72
Slowest flit = 3773
Fragmentation average = 0
	minimum = 0
	maximum = 0
Injected packet rate average = 0.009375
	minimum = 0.004 (at node 9)
	maximum = 0.014 (at node 1)
Accepted packet rate average = 0.00875
	minimum = 0.002 (at node 13)
	maximum = 0.016 (at node 2)
Injected flit rate average = 0.009375
	minimum = 0.004 (at node 9)
	maximum = 0.014 (at node 1)
Accepted flit rate average= 0.00875
	minimum = 0.002 (at node 13)
	maximum = 0.016 (at node 2)
Injected packet length average = 1
Accepted packet length average = 1
Total in-flight flits = 5 (0 measured)
latency change    = 1
throughput change = 1
Class 0:
Packet latency average = 24.4899
	minimum = 7
	maximum = 72
Network latency average = 24.4899
	minimum = 7
	maximum = 72
Slowest packet = 3773
Flit latency average = 24.4899
	minimum = 7
	maximum = 72
Slowest flit = 3773
Fragmentation average = 0
	minimum = 0
	maximum = 0
Injected packet rate average = 0.009625
	minimum = 0.003 (at node 9)
	maximum = 0.016 (at node 1)
Accepted packet rate average = 0.0093125
	minimum = 0.004 (at node 1)
	maximum = 0.019 (at node 4)
Injected flit rate average = 0.009625
	minimum = 0.003 (at node 9)
	maximum = 0.016 (at node 1)
Accepted flit rate average= 0.0093125
	minimum = 0.004 (at node 1)
	maximum = 0.019 (at node 4)
Injected packet length average = 1
Accepted packet length average = 1
Total in-flight flits = 5 (0 measured)
latency change    = 0.0223388
throughput change = 0.0604027
Class 0:
Packet latency average = 25.4583
	minimum = 7
	maximum = 125
Network latency average = 25.4583
	minimum = 7
	maximum = 125
Slowest packet = 3911
Flit latency average = 25.4583
	minimum = 7
	maximum = 125
Slowest flit = 3911
Fragmentation average = 0
	minimum = 0
	maximum = 0
Injected packet rate average = 0.008875
	minimum = 0.004 (at node 8)
	maximum = 0.016 (at node 5)
Accepted packet rate average = 0.009
	minimum = 0.006 (at node 0)
	maximum = 0.014 (at node 8)
Injected flit rate average = 0.008875
	minimum = 0.004 (at node 8)
	maximum = 0.016 (at node 5)
Accepted flit rate average= 0.009
	minimum = 0.006 (at node 0)
	maximum = 0.014 (at node 8)
Injected packet length average = 1
Accepted packet length average = 1
Total in-flight flits = 4 (0 measured)
latency change    = 0.0380386
throughput change = 0.0347222
Warmed up ...Time used is 1500 cycles
Class 0:
Packet latency average = 26.0645
	minimum = 7
	maximum = 175
Network latency average = 26.0645
	minimum = 7
	maximum = 175
Slowest packet = 3971
Flit latency average = 26.8333
	minimum = 7
	maximum = 175
Slowest flit = 3971
Fragmentation average = 0
	minimum = 0
	maximum = 0
Injected packet rate average = 0.008625
	minimum = 0.002 (at node 4)
	maximum = 0.018 (at node 10)
Accepted packet rate average = 0.00825
	minimum = 0 (at node 13)
	maximum = 0.018 (at node 0)
Injected flit rate average = 0.008625
	minimum = 0.002 (at node 4)
	maximum = 0.018 (at node 10)
Accepted flit rate average= 0.00825
	minimum = 0 (at node 13)
	maximum = 0.018 (at node 0)
Injected packet length average = 1
Accepted packet length average = 1
Total in-flight flits = 7 (7 measured)
latency change    = 0.023257
throughput change = 0.0909091
Class 0:
Packet latency average = 25.0929
	minimum = 7
	maximum = 175
Network latency average = 25.0929
	minimum = 7
	maximum = 175
Slowest packet = 3971
Flit latency average = 25.4722
	minimum = 7
	maximum = 175
Slowest flit = 3971
Fragmentation average = 0
	minimum = 0
	maximum = 0
Injected packet rate average = 0.0090625
	minimum = 0.005 (at node 4)
	maximum = 0.017 (at node 10)
Accepted packet rate average = 0.009
	minimum = 0.005 (at node 11)
	maximum = 0.015 (at node 0)
Injected flit rate average = 0.0090625
	minimum = 0.005 (at node 4)
	maximum = 0.017 (at node 10)
Accepted flit rate average= 0.009
	minimum = 0.005 (at node 11)
	maximum = 0.015 (at node 0)
Injected packet length average = 1
Accepted packet length average = 1
Total in-flight flits = 5 (5 measured)
latency change    = 0.0387225
throughput change = 0.0833333
Class 0:
Packet latency average = 25.234
	minimum = 7
	maximum = 175
Network latency average = 25.234
	minimum = 7
	maximum = 175
Slowest packet = 3971
Flit latency average = 25.4603
	minimum = 7
	maximum = 175
Slowest flit = 3971
Fragmentation average = 0
	minimum = 0
	maximum = 0
Injected packet rate average = 0.0100417
	minimum = 0.00666667 (at node 15)
	maximum = 0.016 (at node 10)
Accepted packet rate average = 0.00995833
	minimum = 0.006 (at node 11)
	maximum = 0.0146667 (at node 0)
Injected flit rate average = 0.0100417
	minimum = 0.00666667 (at node 15)
	maximum = 0.016 (at node 10)
Accepted flit rate average= 0.00995833
	minimum = 0.006 (at node 11)
	maximum = 0.0146667 (at node 0)
Injected packet length average = 1
Accepted packet length average = 1
Total in-flight flits = 6 (6 measured)
latency change    = 0.00559504
throughput change = 0.0962343
Class 0:
Packet latency average = 24.9724
	minimum = 7
	maximum = 175
Network latency average = 24.9724
	minimum = 7
	maximum = 175
Slowest packet = 3971
Flit latency average = 25.1394
	minimum = 7
	maximum = 175
Slowest flit = 3971
Fragmentation average = 0
	minimum = 0
	maximum = 0
Injected packet rate average = 0.0103125
	minimum = 0.0065 (at node 15)
	maximum = 0.0165 (at node 3)
Accepted packet rate average = 0.0103125
	minimum = 0.007 (at node 7)
	maximum = 0.013 (at node 0)
Injected flit rate average = 0.0103125
	minimum = 0.0065 (at node 15)
	maximum = 0.0165 (at node 3)
Accepted flit rate average= 0.0103125
	minimum = 0.007 (at node 7)
	maximum = 0.013 (at node 0)
Injected packet length average = 1
Accepted packet length average = 1
Total in-flight flits = 4 (4 measured)
latency change    = 0.0104776
throughput change = 0.0343434
Class 0:
Packet latency average = 24.3033
	minimum = 7
	maximum = 175
Network latency average = 24.3033
	minimum = 7
	maximum = 175
Slowest packet = 3971
Flit latency average = 24.439
	minimum = 7
	maximum = 175
Slowest flit = 3971
Fragmentation average = 0
	minimum = 0
	maximum = 0
Injected packet rate average = 0.010625
	minimum = 0.0072 (at node 4)
	maximum = 0.016 (at node 7)
Accepted packet rate average = 0.01065
	minimum = 0.0064 (at node 7)
	maximum = 0.014 (at node 4)
Injected flit rate average = 0.010625
	minimum = 0.0072 (at node 4)
	maximum = 0.016 (at node 7)
Accepted flit rate average= 0.01065
	minimum = 0.0064 (at node 7)
	maximum = 0.014 (at node 4)
Injected packet length average = 1
Accepted packet length average = 1
Total in-flight flits = 3 (3 measured)
latency change    = 0.0275302
throughput change = 0.0316901
Class 0:
Packet latency average = 24.4289
	minimum = 7
	maximum = 175
Network latency average = 24.4289
	minimum = 7
	maximum = 175
Slowest packet = 3971
Flit latency average = 24.5427
	minimum = 7
	maximum = 175
Slowest flit = 3971
Fragmentation average = 0
	minimum = 0
	maximum = 0
Injected packet rate average = 0.0104792
	minimum = 0.007 (at node 0)
	maximum = 0.0156667 (at node 7)
Accepted packet rate average = 0.0104792
	minimum = 0.00766667 (at node 13)
	maximum = 0.0136667 (at node 4)
Injected flit rate average = 0.0104792
	minimum = 0.007 (at node 0)
	maximum = 0.0156667 (at node 7)
Accepted flit rate average= 0.0104792
	minimum = 0.00766667 (at node 13)
	maximum = 0.0136667 (at node 4)
Injected packet length average = 1
Accepted packet length average = 1
Total in-flight flits = 4 (4 measured)
latency change    = 0.00513901
throughput change = 0.0163022
Draining all recorded packets ...
Draining remaining packets ...
Time taken is 4570 cycles
Class 0:
Packet latency average = 21.8472
	minimum = 7
	maximum = 92
Network latency average = 21.8472
	minimum = 7
	maximum = 92
Slowest packet = 4529
Flit latency average = 21.8472
	minimum = 7
	maximum = 92
Slowest flit = 4529
Fragmentation average = 0
	minimum = 0
	maximum = 0
Injected packet rate average = 0.00975
	minimum = 0.004 (at node 13)
	maximum = 0.014 (at node 1)
Accepted packet rate average = 0.009
	minimum = 0.004 (at node 3)
	maximum = 0.014 (at node 1)
Injected flit rate average = 0.00975
	minimum = 0.004 (at node 13)
	maximum = 0.014 (at node 1)
Accepted flit rate average= 0.009
	minimum = 0.004 (at node 3)
	maximum = 0.014 (at node 1)
Injected packet length average = 1
Accepted packet length average = 1
Total in-flight flits = 6 (0 measured)
latency change    = 1
throughput change = 1
Class 0:
Packet latency average = 26.702
	minimum = 7
	maximum = 209
Network latency average = 26.702
	minimum = 7
	maximum = 209
Slowest packet = 4586
Flit latency average = 26.702
	minimum = 7
	maximum = 209
Slowest flit = 4586
Fragmentation average = 0
	minimum = 0
	maximum = 0
Injected packet rate average = 0.0095625
	minimum = 0.003 (at node 5)
	maximum = 0.016 (at node 9)
Accepted packet rate average = 0.0094375
	minimum = 0.005 (at node 0)
	maximum = 0.016 (at node 11)
Injected flit rate average = 0.0095625
	minimum = 0.003 (at node 5)
	maximum = 0.016 (at node 9)
Accepted flit rate average= 0.0094375
	minimum = 0.005 (at node 0)
	maximum = 0.016 (at node 11)
Injected packet length average = 1
Accepted packet length average = 1
Total in-flight flits = 2 (0 measured)
latency change    = 0.181813
throughput change = 0.0463576
Class 0:
Packet latency average = 25.1429
	minimum = 7
	maximum = 102
Network latency average = 25.1429
	minimum = 7
	maximum = 102
Slowest packet = 4645
Flit latency average = 25.1429
	minimum = 7
	maximum = 102
Slowest flit = 4645
Fragmentation average = 0
	minimum = 0
	maximum = 0
Injected packet rate average = 0.011125
	minimum = 0.002 (at node 3)
	maximum = 0.02 (at node 6)
Accepted packet rate average = 0.0105
	minimum = 0.002 (at node 5)
	maximum = 0.022 (at node 0)
Injected flit rate average = 0.011125
	minimum = 0.002 (at node 3)
	maximum = 0.02 (at node 6)
Accepted flit rate average= 0.0105
	minimum = 0.002 (at node 5)
	maximum = 0.022 (at node 0)
Injected packet length average = 1
Accepted packet length average = 1
Total in-flight flits = 7 (0 measured)
latency change    = 0.0620108
throughput change = 0.10119
Warmed up ...Time used is 1500 cycles
Class 0:
Packet latency average = 25.0864
	minimum = 7
	maximum = 89
Network latency average = 25.0864
	minimum = 7
	maximum = 89
Slowest packet = 4749
Flit latency average = 27.3409
	minimum = 7
	maximum = 203
Slowest flit = 4688
Fragmentation average = 0
	minimum = 0
	maximum = 0
Injected packet rate average = 0.010625
	minimum = 0.004 (at node 6)
	maximum = 0.016 (at node 3)
Accepted packet rate average = 0.011
	minimum = 0.004 (at node 12)
	maximum = 0.024 (at node 2)
Injected flit rate average = 0.010625
	minimum = 0.004 (at node 6)
	maximum = 0.016 (at node 3)
Accepted flit rate average= 0.011
	minimum = 0.004 (at node 12)
	maximum = 0.024 (at node 2)
Injected packet length average = 1
Accepted packet length average = 1
Total in-flight flits = 4 (4 measured)
latency change    = 0.00224972
throughput change = 0.0454545
Class 0:
Packet latency average = 23.7958
	minimum = 7
	maximum = 89
Network latency average = 23.7958
	minimum = 7
	maximum = 89
Slowest packet = 4749
Flit latency average = 24.8434
	minimum = 7
	maximum = 203
Slowest flit = 4688
Fragmentation average = 0
	minimum = 0
	maximum = 0
Injected packet rate average = 0.0124375
	minimum = 0.009 (at node 1)
	maximum = 0.018 (at node 0)
Accepted packet rate average = 0.012375
	minimum = 0.005 (at node 12)
	maximum = 0.021 (at node 2)
Injected flit rate average = 0.0124375
	minimum = 0.009 (at node 1)
	maximum = 0.018 (at node 0)
Accepted flit rate average= 0.012375
	minimum = 0.005 (at node 12)
	maximum = 0.021 (at node 2)
Injected packet length average = 1
Accepted packet length average = 1
Total in-flight flits = 8 (8 measured)
latency change    = 0.0542368
throughput change = 0.111111
Class 0:
Packet latency average = 23.7643
	minimum = 7
	maximum = 137
Network latency average = 23.7643
	minimum = 7
	maximum = 137
Slowest packet = 4899
Flit latency average = 24.4878
	minimum = 7
	maximum = 203
Slowest flit = 4688
Fragmentation average = 0
	minimum = 0
	maximum = 0
Injected packet rate average = 0.0117917
	minimum = 0.00866667 (at node 1)
	maximum = 0.0153333 (at node 8)
Accepted packet rate average = 0.0119583
	minimum = 0.00666667 (at node 12)
	maximum = 0.0186667 (at node 14)
Injected flit rate average = 0.0117917
	minimum = 0.00866667 (at node 1)
	maximum = 0.0153333 (at node 8)
Accepted flit rate average= 0.0119583
	minimum = 0.00666667 (at node 12)
	maximum = 0.0186667 (at node 14)
Injected packet length average = 1
Accepted packet length average = 1
Total in-flight flits = 3 (3 measured)
latency change    = 0.0013266
throughput change = 0.0348432
Class 0:
Packet latency average = 23.6731
	minimum = 7
	maximum = 137
Network latency average = 23.6731
	minimum = 7
	maximum = 137
Slowest packet = 4899
Flit latency average = 24.2345
	minimum = 7
	maximum = 203
Slowest flit = 4688
Fragmentation average = 0
	minimum = 0
	maximum = 0
Injected packet rate average = 0.011625
	minimum = 0.0085 (at node 5)
	maximum = 0.0145 (at node 11)
Accepted packet rate average = 0.0115937
	minimum = 0.007 (at node 5)
	maximum = 0.017 (at node 14)
Injected flit rate average = 0.011625
	minimum = 0.0085 (at node 5)
	maximum = 0.0145 (at node 11)
Accepted flit rate average= 0.0115937
	minimum = 0.007 (at node 5)
	maximum = 0.017 (at node 14)
Injected packet length average = 1
Accepted packet length average = 1
Total in-flight flits = 8 (8 measured)
latency change    = 0.00385285
throughput change = 0.0314465
Class 0:
Packet latency average = 23.7978
	minimum = 7
	maximum = 137
Network latency average = 23.7978
	minimum = 7
	maximum = 137
Slowest packet = 4899
Flit latency average = 24.2468
	minimum = 7
	maximum = 203
Slowest flit = 4688
Fragmentation average = 0
	minimum = 0
	maximum = 0
Injected packet rate average = 0.0115
	minimum = 0.0088 (at node 5)
	maximum = 0.0136 (at node 3)
Accepted packet rate average = 0.01155
	minimum = 0.008 (at node 12)
	maximum = 0.0168 (at node 14)
Injected flit rate average = 0.0115
	minimum = 0.0088 (at node 5)
	maximum = 0.0136 (at node 3)
Accepted flit rate average= 0.01155
	minimum = 0.008 (at node 12)
	maximum = 0.0168 (at node 14)
Injected packet length average = 1
Accepted packet length average = 1
Total in-flight flits = 5 (5 measured)
latency change    = 0.00524104
throughput change = 0.00378788
Draining all recorded packets ...
Draining remaining packets ...
Time taken is 4040 cycles
Class 0:
Packet latency average = 27.5857
	minimum = 7
	maximum = 113
Network latency average = 27.5857
	minimum = 7
	maximum = 113
Slowest packet = 5203
Flit latency average = 27.5857
	minimum = 7
	maximum = 113
Slowest flit = 5203
Fragmentation average = 0
	minimum = 0
	maximum = 0
Injected packet rate average = 0.0095
	minimum = 0.002 (at node 4)
	maximum = 0.02 (at node 13)
Accepted packet rate average = 0.00875
	minimum = 0.002 (at node 0)
	maximum = 0.018 (at node 10)
Injected flit rate average = 0.0095
	minimum = 0.002 (at node 4)
	maximum = 0.02 (at node 13)
Accepted flit rate average= 0.00875
	minimum = 0.002 (at node 0)
	maximum = 0.018 (at node 10)
Injected packet length average = 1
Accepted packet length average = 1
Total in-flight flits = 6 (0 measured)
latency change    = 1
throughput change = 1
Class 0:
Packet latency average = 27.7333
	minimum = 7
	maximum = 300
Network latency average = 27.7333
	minimum = 7
	maximum = 300
Slowest packet = 5256
Flit latency average = 27.7333
	minimum = 7
	maximum = 300
Slowest flit = 5256
Fragmentation average = 0
	minimum = 0
	maximum = 0
Injected packet rate average = 0.0095625
	minimum = 0.005 (at node 5)
	maximum = 0.014 (at node 6)
Accepted packet rate average = 0.009375
	minimum = 0.004 (at node 0)
	maximum = 0.014 (at node 1)
Injected flit rate average = 0.0095625
	minimum = 0.005 (at node 5)
	maximum = 0.014 (at node 6)
Accepted flit rate average= 0.009375
	minimum = 0.004 (at node 0)
	maximum = 0.014 (at node 1)
Injected packet length average = 1
Accepted packet length average = 1
Total in-flight flits = 3 (0 measured)
latency change    = 0.0053228
throughput change = 0.0666667
Class 0:
Packet latency average = 25.7727
	minimum = 7
	maximum = 82
Network latency average = 25.7727
	minimum = 7
	maximum = 82
Slowest packet = 5385
Flit latency average = 25.7727
	minimum = 7
	maximum = 82
Slowest flit = 5385
Fragmentation average = 0
	minimum = 0
	maximum = 0
Injected packet rate average = 0.011625
	minimum = 0.002 (at node 0)
	maximum = 0.02 (at node 1)
Accepted packet rate average = 0.011
	minimum = 0.006 (at node 3)
	maximum = 0.018 (at node 4)
Injected flit rate average = 0.011625
	minimum = 0.002 (at node 0)
	maximum = 0.02 (at node 1)
Accepted flit rate average= 0.011
	minimum = 0.006 (at node 3)
	maximum = 0.018 (at node 4)
Injected packet length average = 1
Accepted packet length average = 1
Total in-flight flits = 8 (0 measured)
latency change    = 0.0760729
throughput change = 0.147727
Warmed up ...Time used is 1500 cycles
Class 0:
Packet latency average = 28.5132
	minimum = 7
	maximum = 82
Network latency average = 28.5132
	minimum = 7
	maximum = 82
Slowest packet = 5438
Flit latency average = 28.6786
	minimum = 7
	maximum = 82
Slowest flit = 5438
Fragmentation average = 0
	minimum = 0
	maximum = 0
Injected packet rate average = 0.01
	minimum = 0.002 (at node 8)
	maximum = 0.022 (at node 11)
Accepted packet rate average = 0.0105
	minimum = 0.002 (at node 1)
	maximum = 0.02 (at node 3)
Injected flit rate average = 0.01
	minimum = 0.002 (at node 8)
	maximum = 0.022 (at node 11)
Accepted flit rate average= 0.0105
	minimum = 0.002 (at node 1)
	maximum = 0.02 (at node 3)
Injected packet length average = 1
Accepted packet length average = 1
Total in-flight flits = 4 (4 measured)
latency change    = 0.0961111
throughput change = 0.047619
Class 0:
Packet latency average = 27.0904
	minimum = 7
	maximum = 82
Network latency average = 27.0904
	minimum = 7
	maximum = 82
Slowest packet = 5438
Flit latency average = 27.2356
	minimum = 7
	maximum = 82
Slowest flit = 5438
Fragmentation average = 0
	minimum = 0
	maximum = 0
Injected packet rate average = 0.0105625
	minimum = 0.004 (at node 8)
	maximum = 0.016 (at node 11)
Accepted packet rate average = 0.010875
	minimum = 0.004 (at node 14)
	maximum = 0.019 (at node 12)
Injected flit rate average = 0.0105625
	minimum = 0.004 (at node 8)
	maximum = 0.016 (at node 11)
Accepted flit rate average= 0.010875
	minimum = 0.004 (at node 14)
	maximum = 0.019 (at node 12)
Injected packet length average = 1
Accepted packet length average = 1
Total in-flight flits = 3 (3 measured)
latency change    = 0.0525204
throughput change = 0.0344828
Class 0:
Packet latency average = 26
	minimum = 7
	maximum = 82
Network latency average = 26
	minimum = 7
	maximum = 82
Slowest packet = 5438
Flit latency average = 26.1339
	minimum = 7
	maximum = 82
Slowest flit = 5438
Fragmentation average = 0
	minimum = 0
	maximum = 0
Injected packet rate average = 0.0105
	minimum = 0.00466667 (at node 10)
	maximum = 0.014 (at node 7)
Accepted packet rate average = 0.0105833
	minimum = 0.004 (at node 1)
	maximum = 0.0166667 (at node 12)
Injected flit rate average = 0.0105
	minimum = 0.00466667 (at node 10)
	maximum = 0.014 (at node 7)
Accepted flit rate average= 0.0105833
	minimum = 0.004 (at node 1)
	maximum = 0.0166667 (at node 12)
Injected packet length average = 1
Accepted packet length average = 1
Total in-flight flits = 6 (6 measured)
latency change    = 0.041937
throughput change = 0.0275591
Class 0:
Packet latency average = 25.7823
	minimum = 7
	maximum = 82
Network latency average = 25.7823
	minimum = 7
	maximum = 82
Slowest packet = 5438
Flit latency average = 25.8923
	minimum = 7
	maximum = 82
Slowest flit = 5438
Fragmentation average = 0
	minimum = 0
	maximum = 0
Injected packet rate average = 0.0099375
	minimum = 0.007 (at node 15)
	maximum = 0.0135 (at node 7)
Accepted packet rate average = 0.0101563
	minimum = 0.005 (at node 1)
	maximum = 0.015 (at node 12)
Injected flit rate average = 0.0099375
	minimum = 0.007 (at node 15)
	maximum = 0.0135 (at node 7)
Accepted flit rate average= 0.0101563
	minimum = 0.005 (at node 1)
	maximum = 0.015 (at node 12)
Injected packet length average = 1
Accepted packet length average = 1
Total in-flight flits = 1 (1 measured)
latency change    = 0.00844243
throughput change = 0.0420513
Class 0:
Packet latency average = 25.3877
	minimum = 7
	maximum = 82
Network latency average = 25.3877
	minimum = 7
	maximum = 82
Slowest packet = 5438
Flit latency average = 25.4818
	minimum = 7
	maximum = 82
Slowest flit = 5438
Fragmentation average = 0
	minimum = 0
	maximum = 0
Injected packet rate average = 0.010225
	minimum = 0.008 (at node 15)
	maximum = 0.0132 (at node 7)
Accepted packet rate average = 0.010325
	minimum = 0.0064 (at node 1)
	maximum = 0.0148 (at node 15)
Injected flit rate average = 0.010225
	minimum = 0.008 (at node 15)
	maximum = 0.0132 (at node 7)
Accepted flit rate average= 0.010325
	minimum = 0.0064 (at node 1)
	maximum = 0.0148 (at node 15)
Injected packet length average = 1
Accepted packet length average = 1
Total in-flight flits = 4 (4 measured)
latency change    = 0.0155461
throughput change = 0.0163438
Draining all recorded packets ...
Draining remaining packets ...
Time taken is 4083 cycles
Class 0:
Packet latency average = 29.4416
	minimum = 7
	maximum = 186
Network latency average = 29.4416
	minimum = 7
	maximum = 186
Slowest packet = 5855
Flit latency average = 29.4416
	minimum = 7
	maximum = 186
Slowest flit = 5855
Fragmentation average = 0
	minimum = 0
	maximum = 0
Injected packet rate average = 0.01
	minimum = 0.002 (at node 2)
	maximum = 0.018 (at node 9)
Accepted packet rate average = 0.009625
	minimum = 0.002 (at node 2)
	maximum = 0.016 (at node 5)
Injected flit rate average = 0.01
	minimum = 0.002 (at node 2)
	maximum = 0.018 (at node 9)
Accepted flit rate average= 0.009625
	minimum = 0.002 (at node 2)
	maximum = 0.016 (at node 5)
Injected packet length average = 1
Accepted packet length average = 1
Total in-flight flits = 3 (0 measured)
latency change    = 1
throughput change = 1
Class 0:
Packet latency average = 26.7397
	minimum = 7
	maximum = 186
Network latency average = 26.7397
	minimum = 7
	maximum = 186
Slowest packet = 5855
Flit latency average = 26.7397
	minimum = 7
	maximum = 186
Slowest flit = 5855
Fragmentation average = 0
	minimum = 0
	maximum = 0
Injected packet rate average = 0.0093125
	minimum = 0.004 (at node 3)
	maximum = 0.017 (at node 14)
Accepted packet rate average = 0.009125
	minimum = 0.003 (at node 0)
	maximum = 0.014 (at node 10)
Injected flit rate average = 0.0093125
	minimum = 0.004 (at node 3)
	maximum = 0.017 (at node 14)
Accepted flit rate average= 0.009125
	minimum = 0.003 (at node 0)
	maximum = 0.014 (at node 10)
Injected packet length average = 1
Accepted packet length average = 1
Total in-flight flits = 3 (0 measured)
latency change    = 0.101042
throughput change = 0.0547945
Class 0:
Packet latency average = 24.6
	minimum = 7
	maximum = 56
Network latency average = 24.6
	minimum = 7
	maximum = 56
Slowest packet = 6016
Flit latency average = 24.6
	minimum = 7
	maximum = 56
Slowest flit = 6016
Fragmentation average = 0
	minimum = 0
	maximum = 0
Injected packet rate average = 0.0085
	minimum = 0.002 (at node 8)
	maximum = 0.022 (at node 1)
Accepted packet rate average = 0.008125
	minimum = 0 (at node 11)
	maximum = 0.014 (at node 4)
Injected flit rate average = 0.0085
	minimum = 0.002 (at node 8)
	maximum = 0.022 (at node 1)
Accepted flit rate average= 0.008125
	minimum = 0 (at node 11)
	maximum = 0.014 (at node 4)
Injected packet length average = 1
Accepted packet length average = 1
Total in-flight flits = 6 (0 measured)
latency change    = 0.0869807
throughput change = 0.123077
Warmed up ...Time used is 1500 cycles
Class 0:
Packet latency average = 26.7125
	minimum = 7
	maximum = 185
Network latency average = 26.7125
	minimum = 7
	maximum = 185
Slowest packet = 6110
Flit latency average = 28.6512
	minimum = 7
	maximum = 185
Slowest flit = 6110
Fragmentation average = 0
	minimum = 0
	maximum = 0
Injected packet rate average = 0.01075
	minimum = 0.004 (at node 2)
	maximum = 0.016 (at node 10)
Accepted packet rate average = 0.01075
	minimum = 0.002 (at node 0)
	maximum = 0.022 (at node 4)
Injected flit rate average = 0.01075
	minimum = 0.004 (at node 2)
	maximum = 0.016 (at node 10)
Accepted flit rate average= 0.01075
	minimum = 0.002 (at node 0)
	maximum = 0.022 (at node 4)
Injected packet length average = 1
Accepted packet length average = 1
Total in-flight flits = 6 (6 measured)
latency change    = 0.0790828
throughput change = 0.244186
Class 0:
Packet latency average = 24.9506
	minimum = 7
	maximum = 185
Network latency average = 24.9506
	minimum = 7
	maximum = 185
Slowest packet = 6110
Flit latency average = 26.006
	minimum = 7
	maximum = 185
Slowest flit = 6110
Fragmentation average = 0
	minimum = 0
	maximum = 0
Injected packet rate average = 0.01025
	minimum = 0.005 (at node 2)
	maximum = 0.014 (at node 7)
Accepted packet rate average = 0.0105
	minimum = 0.006 (at node 7)
	maximum = 0.018 (at node 4)
Injected flit rate average = 0.01025
	minimum = 0.005 (at node 2)
	maximum = 0.014 (at node 7)
Accepted flit rate average= 0.0105
	minimum = 0.006 (at node 7)
	maximum = 0.018 (at node 4)
Injected packet length average = 1
Accepted packet length average = 1
Total in-flight flits = 2 (2 measured)
latency change    = 0.0706148
throughput change = 0.0238095
Class 0:
Packet latency average = 24.636
	minimum = 7
	maximum = 185
Network latency average = 24.636
	minimum = 7
	maximum = 185
Slowest packet = 6110
Flit latency average = 25.3673
	minimum = 7
	maximum = 185
Slowest flit = 6110
Fragmentation average = 0
	minimum = 0
	maximum = 0
Injected packet rate average = 0.01025
	minimum = 0.00533333 (at node 2)
	maximum = 0.0133333 (at node 10)
Accepted packet rate average = 0.0102083
	minimum = 0.00533333 (at node 10)
	maximum = 0.0153333 (at node 13)
Injected flit rate average = 0.01025
	minimum = 0.00533333 (at node 2)
	maximum = 0.0133333 (at node 10)
Accepted flit rate average= 0.0102083
	minimum = 0.00533333 (at node 10)
	maximum = 0.0153333 (at node 13)
Injected packet length average = 1
Accepted packet length average = 1
Total in-flight flits = 7 (7 measured)
latency change    = 0.0127713
throughput change = 0.0285714
Class 0:
Packet latency average = 24.9373
	minimum = 7
	maximum = 185
Network latency average = 24.9373
	minimum = 7
	maximum = 185
Slowest packet = 6110
Flit latency average = 25.4831
	minimum = 7
	maximum = 185
Slowest flit = 6110
Fragmentation average = 0
	minimum = 0
	maximum = 0
Injected packet rate average = 0.01
	minimum = 0.0055 (at node 2)
	maximum = 0.0125 (at node 8)
Accepted packet rate average = 0.0101563
	minimum = 0.007 (at node 1)
	maximum = 0.0145 (at node 4)
Injected flit rate average = 0.01
	minimum = 0.0055 (at node 2)
	maximum = 0.0125 (at node 8)
Accepted flit rate average= 0.0101563
	minimum = 0.007 (at node 1)
	maximum = 0.0145 (at node 4)
Injected packet length average = 1
Accepted packet length average = 1
Total in-flight flits = 1 (1 measured)
latency change    = 0.0120831
throughput change = 0.00512821
Class 0:
Packet latency average = 24.3219
	minimum = 7
	maximum = 185
Network latency average = 24.3219
	minimum = 7
	maximum = 185
Slowest packet = 6110
Flit latency average = 24.7922
	minimum = 7
	maximum = 185
Slowest flit = 6110
Fragmentation average = 0
	minimum = 0
	maximum = 0
Injected packet rate average = 0.009525
	minimum = 0.0064 (at node 2)
	maximum = 0.012 (at node 0)
Accepted packet rate average = 0.009625
	minimum = 0.0072 (at node 7)
	maximum = 0.0128 (at node 15)
Injected flit rate average = 0.009525
	minimum = 0.0064 (at node 2)
	maximum = 0.012 (at node 0)
Accepted flit rate average= 0.009625
	minimum = 0.0072 (at node 7)
	maximum = 0.0128 (at node 15)
Injected packet length average = 1
Accepted packet length average = 1
Total in-flight flits = 2 (2 measured)
latency change    = 0.0253025
throughput change = 0.0551948
Class 0:
Packet latency average = 23.943
	minimum = 7
	maximum = 185
Network latency average = 23.943
	minimum = 7
	maximum = 185
Slowest packet = 6110
Flit latency average = 24.3398
	minimum = 7
	maximum = 185
Slowest flit = 6110
Fragmentation average = 0
	minimum = 0
	maximum = 0
Injected packet rate average = 0.00960417
	minimum = 0.00733333 (at node 2)
	maximum = 0.0133333 (at node 0)
Accepted packet rate average = 0.009625
	minimum = 0.007 (at node 7)
	maximum = 0.0116667 (at node 15)
Injected flit rate average = 0.00960417
	minimum = 0.00733333 (at node 2)
	maximum = 0.0133333 (at node 0)
Accepted flit rate average= 0.009625
	minimum = 0.007 (at node 7)
	maximum = 0.0116667 (at node 15)
Injected packet length average = 1
Accepted packet length average = 1
Total in-flight flits = 5 (5 measured)
latency change    = 0.0158258
throughput change = 0
Class 0:
Packet latency average = 23.8926
	minimum = 7
	maximum = 185
Network latency average = 23.8926
	minimum = 7
	maximum = 185
Slowest packet = 6110
Flit latency average = 24.2289
	minimum = 7
	maximum = 185
Slowest flit = 6110
Fragmentation average = 0
	minimum = 0
	maximum = 0
Injected packet rate average = 0.00971429
	minimum = 0.00742857 (at node 2)
	maximum = 0.0122857 (at node 10)
Accepted packet rate average = 0.00975
	minimum = 0.00657143 (at node 7)
	maximum = 0.0114286 (at node 6)
Injected flit rate average = 0.00971429
	minimum = 0.00742857 (at node 2)
	maximum = 0.0122857 (at node 10)
Accepted flit rate average= 0.00975
	minimum = 0.00657143 (at node 7)
	maximum = 0.0114286 (at node 6)
Injected packet length average = 1
Accepted packet length average = 1
Total in-flight flits = 4 (4 measured)
latency change    = 0.00210902
throughput change = 0.0128205
Draining all recorded packets ...
Draining remaining packets ...
Time taken is 5079 cycles
Class 0:
Packet latency average = 25.6486
	minimum = 7
	maximum = 77
Network latency average = 25.6486
	minimum = 7
	maximum = 77
Slowest packet = 6658
Flit latency average = 25.6486
	minimum = 7
	maximum = 77
Slowest flit = 6658
Fragmentation average = 0
	minimum = 0
	maximum = 0
Injected packet rate average = 0.0095
	minimum = 0 (at node 5)
	maximum = 0.02 (at node 4)
Accepted packet rate average = 0.00925
	minimum = 0.004 (at node 7)
	maximum = 0.016 (at node 10)
Injected flit rate average = 0.0095
	minimum = 0 (at node 5)
	maximum = 0.02 (at node 4)
Accepted flit rate average= 0.00925
	minimum = 0.004 (at node 7)
	maximum = 0.016 (at node 10)
Injected packet length average = 1
Accepted packet length average = 1
Total in-flight flits = 2 (0 measured)
latency change    = 1
throughput change = 1
Class 0:
Packet latency average = 24.3813
	minimum = 7
	maximum = 77
Network latency average = 24.3813
	minimum = 7
	maximum = 77
Slowest packet = 6658
Flit latency average = 24.3813
	minimum = 7
	maximum = 77
Slowest flit = 6658
Fragmentation average = 0
	minimum = 0
	maximum = 0
Injected packet rate average = 0.0105625
	minimum = 0.006 (at node 7)
	maximum = 0.019 (at node 4)
Accepted packet rate average = 0.01
	minimum = 0.005 (at node 7)
	maximum = 0.017 (at node 10)
Injected flit rate average = 0.0105625
	minimum = 0.006 (at node 7)
	maximum = 0.019 (at node 4)
Accepted flit rate average= 0.01
	minimum = 0.005 (at node 7)
	maximum = 0.017 (at node 10)
Injected packet length average = 1
Accepted packet length average = 1
Total in-flight flits = 9 (0 measured)
latency change    = 0.0519825
throughput change = 0.075
Class 0:
Packet latency average = 28.8125
	minimum = 7
	maximum = 395
Network latency average = 28.8125
	minimum = 7
	maximum = 395
Slowest packet = 6772
Flit latency average = 28.8125
	minimum = 7
	maximum = 395
Slowest flit = 6772
Fragmentation average = 0
	minimum = 0
	maximum = 0
Injected packet rate average = 0.01
	minimum = 0.002 (at node 0)
	maximum = 0.018 (at node 7)
Accepted packet rate average = 0.01
	minimum = 0.004 (at node 2)
	maximum = 0.016 (at node 10)
Injected flit rate average = 0.01
	minimum = 0.002 (at node 0)
	maximum = 0.018 (at node 7)
Accepted flit rate average= 0.01
	minimum = 0.004 (at node 2)
	maximum = 0.016 (at node 10)
Injected packet length average = 1
Accepted packet length average = 1
Total in-flight flits = 9 (0 measured)
latency change    = 0.153796
throughput change = 0
Warmed up ...Time used is 1500 cycles
Class 0:
Packet latency average = 27.2368
	minimum = 7
	maximum = 147
Network latency average = 27.2368
	minimum = 7
	maximum = 147
Slowest packet = 6901
Flit latency average = 28.0353
	minimum = 7
	maximum = 147
Slowest flit = 6901
Fragmentation average = 0
	minimum = 0
	maximum = 0
Injected packet rate average = 0.009875
	minimum = 0.004 (at node 12)
	maximum = 0.018 (at node 8)
Accepted packet rate average = 0.010625
	minimum = 0.006 (at node 4)
	maximum = 0.022 (at node 14)
Injected flit rate average = 0.009875
	minimum = 0.004 (at node 12)
	maximum = 0.018 (at node 8)
Accepted flit rate average= 0.010625
	minimum = 0.006 (at node 4)
	maximum = 0.022 (at node 14)
Injected packet length average = 1
Accepted packet length average = 1
Total in-flight flits = 3 (3 measured)
latency change    = 0.0578502
throughput change = 0.0588235
Class 0:
Packet latency average = 26.3964
	minimum = 7
	maximum = 147
Network latency average = 26.3964
	minimum = 7
	maximum = 147
Slowest packet = 6901
Flit latency average = 26.8202
	minimum = 7
	maximum = 147
Slowest flit = 6901
Fragmentation average = 0
	minimum = 0
	maximum = 0
Injected packet rate average = 0.010625
	minimum = 0.006 (at node 14)
	maximum = 0.016 (at node 8)
Accepted packet rate average = 0.011125
	minimum = 0.006 (at node 3)
	maximum = 0.019 (at node 14)
Injected flit rate average = 0.010625
	minimum = 0.006 (at node 14)
	maximum = 0.016 (at node 8)
Accepted flit rate average= 0.011125
	minimum = 0.006 (at node 3)
	maximum = 0.019 (at node 14)
Injected packet length average = 1
Accepted packet length average = 1
Total in-flight flits = 1 (1 measured)
latency change    = 0.0318373
throughput change = 0.0449438
Class 0:
Packet latency average = 26.0927
	minimum = 7
	maximum = 158
Network latency average = 26.0927
	minimum = 7
	maximum = 158
Slowest packet = 7091
Flit latency average = 26.3969
	minimum = 7
	maximum = 158
Slowest flit = 7091
Fragmentation average = 0
	minimum = 0
	maximum = 0
Injected packet rate average = 0.0103333
	minimum = 0.00733333 (at node 1)
	maximum = 0.0133333 (at node 3)
Accepted packet rate average = 0.0107083
	minimum = 0.006 (at node 3)
	maximum = 0.0173333 (at node 14)
Injected flit rate average = 0.0103333
	minimum = 0.00733333 (at node 1)
	maximum = 0.0133333 (at node 3)
Accepted flit rate average= 0.0107083
	minimum = 0.006 (at node 3)
	maximum = 0.0173333 (at node 14)
Injected packet length average = 1
Accepted packet length average = 1
Total in-flight flits = 0 (0 measured)
latency change    = 0.0116395
throughput change = 0.0389105
Class 0:
Packet latency average = 26.1853
	minimum = 7
	maximum = 162
Network latency average = 26.1853
	minimum = 7
	maximum = 162
Slowest packet = 7143
Flit latency average = 26.4255
	minimum = 7
	maximum = 162
Slowest flit = 7143
Fragmentation average = 0
	minimum = 0
	maximum = 0
Injected packet rate average = 0.00984375
	minimum = 0.0075 (at node 7)
	maximum = 0.0125 (at node 3)
Accepted packet rate average = 0.0100625
	minimum = 0.0065 (at node 3)
	maximum = 0.015 (at node 14)
Injected flit rate average = 0.00984375
	minimum = 0.0075 (at node 7)
	maximum = 0.0125 (at node 3)
Accepted flit rate average= 0.0100625
	minimum = 0.0065 (at node 3)
	maximum = 0.015 (at node 14)
Injected packet length average = 1
Accepted packet length average = 1
Total in-flight flits = 2 (2 measured)
latency change    = 0.00353487
throughput change = 0.0641822
Class 0:
Packet latency average = 26.0458
	minimum = 7
	maximum = 162
Network latency average = 26.0458
	minimum = 7
	maximum = 162
Slowest packet = 7143
Flit latency average = 26.2413
	minimum = 7
	maximum = 162
Slowest flit = 7143
Fragmentation average = 0
	minimum = 0
	maximum = 0
Injected packet rate average = 0.0099
	minimum = 0.008 (at node 7)
	maximum = 0.0144 (at node 4)
Accepted packet rate average = 0.01005
	minimum = 0.0072 (at node 3)
	maximum = 0.014 (at node 7)
Injected flit rate average = 0.0099
	minimum = 0.008 (at node 7)
	maximum = 0.0144 (at node 4)
Accepted flit rate average= 0.01005
	minimum = 0.0072 (at node 3)
	maximum = 0.014 (at node 7)
Injected packet length average = 1
Accepted packet length average = 1
Total in-flight flits = 3 (3 measured)
latency change    = 0.00535603
throughput change = 0.00124378
Class 0:
Packet latency average = 26.145
	minimum = 7
	maximum = 162
Network latency average = 26.145
	minimum = 7
	maximum = 162
Slowest packet = 7143
Flit latency average = 26.3075
	minimum = 7
	maximum = 162
Slowest flit = 7143
Fragmentation average = 0
	minimum = 0
	maximum = 0
Injected packet rate average = 0.00983333
	minimum = 0.00733333 (at node 7)
	maximum = 0.013 (at node 4)
Accepted packet rate average = 0.00995833
	minimum = 0.00666667 (at node 12)
	maximum = 0.0136667 (at node 7)
Injected flit rate average = 0.00983333
	minimum = 0.00733333 (at node 7)
	maximum = 0.013 (at node 4)
Accepted flit rate average= 0.00995833
	minimum = 0.00666667 (at node 12)
	maximum = 0.0136667 (at node 7)
Injected packet length average = 1
Accepted packet length average = 1
Total in-flight flits = 3 (3 measured)
latency change    = 0.00379376
throughput change = 0.00920502
Class 0:
Packet latency average = 27.3383
	minimum = 7
	maximum = 387
Network latency average = 27.3383
	minimum = 7
	maximum = 387
Slowest packet = 7287
Flit latency average = 27.4614
	minimum = 7
	maximum = 387
Slowest flit = 7287
Fragmentation average = 0
	minimum = 0
	maximum = 0
Injected packet rate average = 0.00969643
	minimum = 0.00685714 (at node 7)
	maximum = 0.0125714 (at node 4)
Accepted packet rate average = 0.00971429
	minimum = 0.00714286 (at node 13)
	maximum = 0.0137143 (at node 7)
Injected flit rate average = 0.00969643
	minimum = 0.00685714 (at node 7)
	maximum = 0.0125714 (at node 4)
Accepted flit rate average= 0.00971429
	minimum = 0.00714286 (at node 13)
	maximum = 0.0137143 (at node 7)
Injected packet length average = 1
Accepted packet length average = 1
Total in-flight flits = 8 (8 measured)
latency change    = 0.0436504
throughput change = 0.0251225
Draining all recorded packets ...
Draining remaining packets ...
Time taken is 5160 cycles
Class 0:
Packet latency average = 24.5211
	minimum = 7
[...]
	maximum = 67
Network latency average = 23.5132
	minimum = 7
	maximum = 67
Slowest packet = 32195
Flit latency average = 23.5132
	minimum = 7
	maximum = 67
Slowest flit = 32195
Fragmentation average = 0
	minimum = 0
	maximum = 0
Injected packet rate average = 0.01025
	minimum = 0.004 (at node 5)
	maximum = 0.014 (at node 4)
Accepted packet rate average = 0.0095
	minimum = 0.002 (at node 7)
	maximum = 0.018 (at node 1)
Injected flit rate average = 0.01025
	minimum = 0.004 (at node 5)
	maximum = 0.014 (at node 4)
Accepted flit rate average= 0.0095
	minimum = 0.002 (at node 7)
	maximum = 0.018 (at node 1)
Injected packet length average = 1
Accepted packet length average = 1
Total in-flight flits = 6 (0 measured)
latency change    = 1
throughput change = 1
Class 0:
Packet latency average = 23.3464
	minimum = 7
	maximum = 102
Network latency average = 23.3464
	minimum = 7
	maximum = 102
Slowest packet = 32261
Flit latency average = 23.3464
	minimum = 7
	maximum = 102
Slowest flit = 32261
Fragmentation average = 0
	minimum = 0
	maximum = 0
Injected packet rate average = 0.0096875
	minimum = 0.005 (at node 5)
	maximum = 0.017 (at node 15)
Accepted packet rate average = 0.0095625
	minimum = 0.002 (at node 15)
	maximum = 0.014 (at node 1)
Injected flit rate average = 0.0096875
	minimum = 0.005 (at node 5)
	maximum = 0.017 (at node 15)
Accepted flit rate average= 0.0095625
	minimum = 0.002 (at node 15)
	maximum = 0.014 (at node 1)
Injected packet length average = 1
Accepted packet length average = 1
Total in-flight flits = 2 (0 measured)
latency change    = 0.00714254
throughput change = 0.00653595
Class 0:
Packet latency average = 23.5946
	minimum = 7
	maximum = 57
Network latency average = 23.5946
	minimum = 7
	maximum = 57
Slowest packet = 32336
Flit latency average = 23.5946
	minimum = 7
	maximum = 57
Slowest flit = 32336
Fragmentation average = 0
	minimum = 0
	maximum = 0
Injected packet rate average = 0.009375
	minimum = 0.002 (at node 6)
	maximum = 0.02 (at node 11)
Accepted packet rate average = 0.00925
	minimum = 0.004 (at node 2)
	maximum = 0.026 (at node 15)
Injected flit rate average = 0.009375
	minimum = 0.002 (at node 6)
	maximum = 0.02 (at node 11)
Accepted flit rate average= 0.00925
	minimum = 0.004 (at node 2)
	maximum = 0.026 (at node 15)
Injected packet length average = 1
Accepted packet length average = 1
Total in-flight flits = 3 (0 measured)
latency change    = 0.0105189
throughput change = 0.0337838
Warmed up ...Time used is 1500 cycles
Class 0:
Packet latency average = 25.8804
	minimum = 7
	maximum = 112
Network latency average = 25.8804
	minimum = 7
	maximum = 112
Slowest packet = 32429
Flit latency average = 26.0316
	minimum = 7
	maximum = 112
Slowest flit = 32429
Fragmentation average = 0
	minimum = 0
	maximum = 0
Injected packet rate average = 0.012
	minimum = 0.004 (at node 7)
	maximum = 0.026 (at node 8)
Accepted packet rate average = 0.011875
	minimum = 0.004 (at node 3)
	maximum = 0.018 (at node 6)
Injected flit rate average = 0.012
	minimum = 0.004 (at node 7)
	maximum = 0.026 (at node 8)
Accepted flit rate average= 0.011875
	minimum = 0.004 (at node 3)
	maximum = 0.018 (at node 6)
Injected packet length average = 1
Accepted packet length average = 1
Total in-flight flits = 4 (4 measured)
latency change    = 0.0883231
throughput change = 0.221053
Class 0:
Packet latency average = 27.3812
	minimum = 7
	maximum = 156
Network latency average = 27.3812
	minimum = 7
	maximum = 156
Slowest packet = 32479
Flit latency average = 27.4348
	minimum = 7
	maximum = 156
Slowest flit = 32479
Fragmentation average = 0
	minimum = 0
	maximum = 0
Injected packet rate average = 0.011375
	minimum = 0.005 (at node 9)
	maximum = 0.019 (at node 8)
Accepted packet rate average = 0.0115
	minimum = 0.006 (at node 3)
	maximum = 0.017 (at node 6)
Injected flit rate average = 0.011375
	minimum = 0.005 (at node 9)
	maximum = 0.019 (at node 8)
Accepted flit rate average= 0.0115
	minimum = 0.006 (at node 3)
	maximum = 0.017 (at node 6)
Injected packet length average = 1
Accepted packet length average = 1
Total in-flight flits = 1 (1 measured)
latency change    = 0.0548106
throughput change = 0.0326087
Class 0:
Packet latency average = 27.5211
	minimum = 7
	maximum = 156
Network latency average = 27.5211
	minimum = 7
	maximum = 156
Slowest packet = 32479
Flit latency average = 27.5568
	minimum = 7
	maximum = 156
Slowest flit = 32479
Fragmentation average = 0
	minimum = 0
	maximum = 0
Injected packet rate average = 0.011
	minimum = 0.006 (at node 9)
	maximum = 0.0166667 (at node 8)
Accepted packet rate average = 0.011
	minimum = 0.00733333 (at node 2)
	maximum = 0.014 (at node 10)
Injected flit rate average = 0.011
	minimum = 0.006 (at node 9)
	maximum = 0.0166667 (at node 8)
Accepted flit rate average= 0.011
	minimum = 0.00733333 (at node 2)
	maximum = 0.014 (at node 10)
Injected packet length average = 1
Accepted packet length average = 1
Total in-flight flits = 3 (3 measured)
latency change    = 0.00508183
throughput change = 0.0454545
Class 0:
Packet latency average = 27.0029
	minimum = 7
	maximum = 156
Network latency average = 27.0029
	minimum = 7
	maximum = 156
Slowest packet = 32479
Flit latency average = 27.034
	minimum = 7
	maximum = 156
Slowest flit = 32479
Fragmentation average = 0
	minimum = 0
	maximum = 0
Injected packet rate average = 0.0110312
	minimum = 0.007 (at node 9)
	maximum = 0.0145 (at node 8)
Accepted packet rate average = 0.0110312
	minimum = 0.0065 (at node 2)
	maximum = 0.014 (at node 8)
Injected flit rate average = 0.0110312
	minimum = 0.007 (at node 9)
	maximum = 0.0145 (at node 8)
Accepted flit rate average= 0.0110312
	minimum = 0.0065 (at node 2)
	maximum = 0.014 (at node 8)
Injected packet length average = 1
Accepted packet length average = 1
Total in-flight flits = 3 (3 measured)
latency change    = 0.0191911
throughput change = 0.00283286
Class 0:
Packet latency average = 27.2595
	minimum = 7
	maximum = 156
Network latency average = 27.2595
	minimum = 7
	maximum = 156
Slowest packet = 32479
Flit latency average = 27.2822
	minimum = 7
	maximum = 156
Slowest flit = 32479
Fragmentation average = 0
	minimum = 0
	maximum = 0
Injected packet rate average = 0.011225
	minimum = 0.0084 (at node 9)
	maximum = 0.0144 (at node 8)
Accepted packet rate average = 0.01125
	minimum = 0.0072 (at node 2)
	maximum = 0.0152 (at node 8)
Injected flit rate average = 0.011225
	minimum = 0.0084 (at node 9)
	maximum = 0.0144 (at node 8)
Accepted flit rate average= 0.01125
	minimum = 0.0072 (at node 2)
	maximum = 0.0152 (at node 8)
Injected packet length average = 1
Accepted packet length average = 1
Total in-flight flits = 2 (2 measured)
latency change    = 0.00941509
throughput change = 0.0194444
Draining all recorded packets ...
Draining remaining packets ...
Time taken is 4021 cycles
Class 0:
Packet latency average = 24.3226
	minimum = 7
	maximum = 52
Network latency average = 24.3226
	minimum = 7
	maximum = 52
Slowest packet = 32842
Flit latency average = 24.3226
	minimum = 7
	maximum = 52
Slowest flit = 32842
Fragmentation average = 0
	minimum = 0
	maximum = 0
Injected packet rate average = 0.007875
	minimum = 0 (at node 1)
	maximum = 0.02 (at node 10)
Accepted packet rate average = 0.00775
	minimum = 0.002 (at node 1)
	maximum = 0.02 (at node 4)
Injected flit rate average = 0.007875
	minimum = 0 (at node 1)
	maximum = 0.02 (at node 10)
Accepted flit rate average= 0.00775
	minimum = 0.002 (at node 1)
	maximum = 0.02 (at node 4)
Injected packet length average = 1
Accepted packet length average = 1
Total in-flight flits = 1 (0 measured)
latency change    = 1
throughput change = 1
Class 0:
Packet latency average = 25.8365
	minimum = 7
	maximum = 118
Network latency average = 25.8365
	minimum = 7
	maximum = 118
Slowest packet = 32942
Flit latency average = 25.8365
	minimum = 7
	maximum = 118
Slowest flit = 32942
Fragmentation average = 0
	minimum = 0
	maximum = 0
Injected packet rate average = 0.01
	minimum = 0.002 (at node 7)
	maximum = 0.017 (at node 10)
Accepted packet rate average = 0.0099375
	minimum = 0.003 (at node 5)
	maximum = 0.025 (at node 4)
Injected flit rate average = 0.01
	minimum = 0.002 (at node 7)
	maximum = 0.017 (at node 10)
Accepted flit rate average= 0.0099375
	minimum = 0.003 (at node 5)
	maximum = 0.025 (at node 4)
Injected packet length average = 1
Accepted packet length average = 1
Total in-flight flits = 1 (0 measured)
latency change    = 0.0585953
throughput change = 0.220126
Class 0:
Packet latency average = 25.5455
	minimum = 7
	maximum = 77
Network latency average = 25.5455
	minimum = 7
	maximum = 77
Slowest packet = 33041
Flit latency average = 25.5455
	minimum = 7
	maximum = 77
Slowest flit = 33041
Fragmentation average = 0
	minimum = 0
	maximum = 0
Injected packet rate average = 0.008625
	minimum = 0.002 (at node 3)
	maximum = 0.02 (at node 1)
Accepted packet rate average = 0.00825
	minimum = 0.002 (at node 10)
	maximum = 0.016 (at node 12)
Injected flit rate average = 0.008625
	minimum = 0.002 (at node 3)
	maximum = 0.02 (at node 1)
Accepted flit rate average= 0.00825
	minimum = 0.002 (at node 10)
	maximum = 0.016 (at node 12)
Injected packet length average = 1
Accepted packet length average = 1
Total in-flight flits = 4 (0 measured)
latency change    = 0.0113924
throughput change = 0.204545
Warmed up ...Time used is 1500 cycles
Class 0:
Packet latency average = 25.0641
	minimum = 7
	maximum = 67
Network latency average = 25.0641
	minimum = 7
	maximum = 67
Slowest packet = 33103
Flit latency average = 25.5854
	minimum = 7
	maximum = 67
Slowest flit = 33103
Fragmentation average = 0
	minimum = 0
	maximum = 0
Injected packet rate average = 0.010375
	minimum = 0.002 (at node 4)
	maximum = 0.016 (at node 2)
Accepted packet rate average = 0.01025
	minimum = 0.004 (at node 1)
	maximum = 0.016 (at node 0)
Injected flit rate average = 0.010375
	minimum = 0.002 (at node 4)
	maximum = 0.016 (at node 2)
Accepted flit rate average= 0.01025
	minimum = 0.004 (at node 1)
	maximum = 0.016 (at node 0)
Injected packet length average = 1
Accepted packet length average = 1
Total in-flight flits = 5 (5 measured)
latency change    = 0.0192048
throughput change = 0.195122
Class 0:
Packet latency average = 25.3675
	minimum = 7
	maximum = 112
Network latency average = 25.3675
	minimum = 7
	maximum = 112
Slowest packet = 33127
Flit latency average = 25.6118
	minimum = 7
	maximum = 112
Slowest flit = 33127
Fragmentation average = 0
	minimum = 0
	maximum = 0
Injected packet rate average = 0.010625
	minimum = 0.004 (at node 4)
	maximum = 0.014 (at node 1)
Accepted packet rate average = 0.010625
	minimum = 0.006 (at node 11)
	maximum = 0.015 (at node 7)
Injected flit rate average = 0.010625
	minimum = 0.004 (at node 4)
	maximum = 0.014 (at node 1)
Accepted flit rate average= 0.010625
	minimum = 0.006 (at node 11)
	maximum = 0.015 (at node 7)
Injected packet length average = 1
Accepted packet length average = 1
Total in-flight flits = 4 (4 measured)
latency change    = 0.0119589
throughput change = 0.0352941
Class 0:
Packet latency average = 25.0553
	minimum = 7
	maximum = 112
Network latency average = 25.0553
	minimum = 7
	maximum = 112
Slowest packet = 33127
Flit latency average = 25.2218
	minimum = 7
	maximum = 112
Slowest flit = 33127
Fragmentation average = 0
	minimum = 0
	maximum = 0
Injected packet rate average = 0.01075
	minimum = 0.00533333 (at node 4)
	maximum = 0.0146667 (at node 10)
Accepted packet rate average = 0.0107083
	minimum = 0.006 (at node 8)
	maximum = 0.0146667 (at node 0)
Injected flit rate average = 0.01075
	minimum = 0.00533333 (at node 4)
	maximum = 0.0146667 (at node 10)
Accepted flit rate average= 0.0107083
	minimum = 0.006 (at node 8)
	maximum = 0.0146667 (at node 0)
Injected packet length average = 1
Accepted packet length average = 1
Total in-flight flits = 5 (5 measured)
latency change    = 0.0124578
throughput change = 0.0077821
Class 0:
Packet latency average = 25
	minimum = 7
	maximum = 112
Network latency average = 25
	minimum = 7
	maximum = 112
Slowest packet = 33127
Flit latency average = 25.1299
	minimum = 7
	maximum = 112
Slowest flit = 33127
Fragmentation average = 0
	minimum = 0
	maximum = 0
Injected packet rate average = 0.01025
	minimum = 0.0065 (at node 4)
	maximum = 0.0145 (at node 10)
Accepted packet rate average = 0.0103438
	minimum = 0.006 (at node 11)
	maximum = 0.014 (at node 0)
Injected flit rate average = 0.01025
	minimum = 0.0065 (at node 4)
	maximum = 0.0145 (at node 10)
Accepted flit rate average= 0.0103438
	minimum = 0.006 (at node 11)
	maximum = 0.014 (at node 0)
Injected packet length average = 1
Accepted packet length average = 1
Total in-flight flits = 1 (1 measured)
latency change    = 0.00221344
throughput change = 0.0352467
Draining all recorded packets ...
Draining remaining packets ...
Time taken is 3522 cycles
Class 0:
Packet latency average = 23.4324
	minimum = 7
	maximum = 147
Network latency average = 23.4324
	minimum = 7
	maximum = 147
Slowest packet = 33394
Flit latency average = 23.4324
	minimum = 7
	maximum = 147
Slowest flit = 33394
Fragmentation average = 0
	minimum = 0
	maximum = 0
Injected packet rate average = 0.01025
	minimum = 0.004 (at node 1)
	maximum = 0.02 (at node 6)
Accepted packet rate average = 0.00925
	minimum = 0.004 (at node 11)
	maximum = 0.014 (at node 9)
Injected flit rate average = 0.01025
	minimum = 0.004 (at node 1)
	maximum = 0.02 (at node 6)
Accepted flit rate average= 0.00925
	minimum = 0.004 (at node 11)
	maximum = 0.014 (at node 9)
Injected packet length average = 1
Accepted packet length average = 1
Total in-flight flits = 8 (0 measured)
latency change    = 1
throughput change = 1
Class 0:
Packet latency average = 24.9554
	minimum = 7
	maximum = 147
Network latency average = 24.9554
	minimum = 7
	maximum = 147
Slowest packet = 33394
Flit latency average = 24.9554
	minimum = 7
	maximum = 147
Slowest flit = 33394
Fragmentation average = 0
	minimum = 0
	maximum = 0
Injected packet rate average = 0.0101875
	minimum = 0.006 (at node 1)
	maximum = 0.014 (at node 6)
Accepted packet rate average = 0.0098125
	minimum = 0.004 (at node 13)
	maximum = 0.015 (at node 3)
Injected flit rate average = 0.0101875
	minimum = 0.006 (at node 1)
	maximum = 0.014 (at node 6)
Accepted flit rate average= 0.0098125
	minimum = 0.004 (at node 13)
	maximum = 0.015 (at node 3)
Injected packet length average = 1
Accepted packet length average = 1
Total in-flight flits = 6 (0 measured)
latency change    = 0.0610281
throughput change = 0.0573248
Class 0:
Packet latency average = 26.8857
	minimum = 7
	maximum = 72
Network latency average = 26.8857
	minimum = 7
	maximum = 72
Slowest packet = 33563
Flit latency average = 26.8857
	minimum = 7
	maximum = 72
Slowest flit = 33563
Fragmentation average = 0
	minimum = 0
	maximum = 0
Injected packet rate average = 0.008625
	minimum = 0.002 (at node 6)
	maximum = 0.012 (at node 2)
Accepted packet rate average = 0.00875
	minimum = 0.004 (at node 14)
	maximum = 0.016 (at node 10)
Injected flit rate average = 0.008625
	minimum = 0.002 (at node 6)
	maximum = 0.012 (at node 2)
Accepted flit rate average= 0.00875
	minimum = 0.004 (at node 14)
	maximum = 0.016 (at node 10)
Injected packet length average = 1
Accepted packet length average = 1
Total in-flight flits = 5 (0 measured)
latency change    = 0.0717965
throughput change = 0.121429
Warmed up ...Time used is 1500 cycles
Class 0:
Packet latency average = 25.5493
	minimum = 7
	maximum = 77
Network latency average = 25.5493
	minimum = 7
	maximum = 77
Slowest packet = 33653
Flit latency average = 25.9474
	minimum = 7
	maximum = 77
Slowest flit = 33653
Fragmentation average = 0
	minimum = 0
	maximum = 0
Injected packet rate average = 0.00925
	minimum = 0.006 (at node 0)
	maximum = 0.018 (at node 6)
Accepted packet rate average = 0.0095
	minimum = 0.004 (at node 0)
	maximum = 0.018 (at node 14)
Injected flit rate average = 0.00925
	minimum = 0.006 (at node 0)
	maximum = 0.018 (at node 6)
Accepted flit rate average= 0.0095
	minimum = 0.004 (at node 0)
	maximum = 0.018 (at node 14)
Injected packet length average = 1
Accepted packet length average = 1
Total in-flight flits = 3 (3 measured)
latency change    = 0.0523074
throughput change = 0.0789474
Class 0:
Packet latency average = 25.0286
	minimum = 7
	maximum = 102
Network latency average = 25.0286
	minimum = 7
	maximum = 102
Slowest packet = 33692
Flit latency average = 25.2552
	minimum = 7
	maximum = 102
Slowest flit = 33692
Fragmentation average = 0
	minimum = 0
	maximum = 0
Injected packet rate average = 0.009125
	minimum = 0.004 (at node 5)
	maximum = 0.013 (at node 6)
Accepted packet rate average = 0.0090625
	minimum = 0.006 (at node 0)
	maximum = 0.014 (at node 15)
Injected flit rate average = 0.009125
	minimum = 0.004 (at node 5)
	maximum = 0.013 (at node 6)
Accepted flit rate average= 0.0090625
	minimum = 0.006 (at node 0)
	maximum = 0.014 (at node 15)
Injected packet length average = 1
Accepted packet length average = 1
Total in-flight flits = 6 (6 measured)
latency change    = 0.0208052
throughput change = 0.0482759
Class 0:
Packet latency average = 25.6038
	minimum = 7
	maximum = 102
Network latency average = 25.6038
	minimum = 7
	maximum = 102
Slowest packet = 33692
Flit latency average = 25.7419
	minimum = 7
	maximum = 102
Slowest flit = 33692
Fragmentation average = 0
	minimum = 0
	maximum = 0
Injected packet rate average = 0.009125
	minimum = 0.00533333 (at node 5)
	maximum = 0.0126667 (at node 8)
Accepted packet rate average = 0.00904167
	minimum = 0.006 (at node 6)
	maximum = 0.0126667 (at node 15)
Injected flit rate average = 0.009125
	minimum = 0.00533333 (at node 5)
	maximum = 0.0126667 (at node 8)
Accepted flit rate average= 0.00904167
	minimum = 0.006 (at node 6)
	maximum = 0.0126667 (at node 15)
Injected packet length average = 1
Accepted packet length average = 1
Total in-flight flits = 7 (7 measured)
latency change    = 0.0224655
throughput change = 0.00230415
Class 0:
Packet latency average = 26.0788
	minimum = 7
	maximum = 112
Network latency average = 26.0788
	minimum = 7
	maximum = 112
Slowest packet = 33831
Flit latency average = 26.1717
	minimum = 7
	maximum = 112
Slowest flit = 33831
Fragmentation average = 0
	minimum = 0
	maximum = 0
Injected packet rate average = 0.00928125
	minimum = 0.006 (at node 5)
	maximum = 0.0135 (at node 6)
Accepted packet rate average = 0.00928125
	minimum = 0.0065 (at node 8)
	maximum = 0.0135 (at node 15)
Injected flit rate average = 0.00928125
	minimum = 0.006 (at node 5)
	maximum = 0.0135 (at node 6)
Accepted flit rate average= 0.00928125
	minimum = 0.0065 (at node 8)
	maximum = 0.0135 (at node 15)
Injected packet length average = 1
Accepted packet length average = 1
Total in-flight flits = 5 (5 measured)
latency change    = 0.0182138
throughput change = 0.0258137
Draining all recorded packets ...
Draining remaining packets ...
Time taken is 3559 cycles
====== Overall Traffic Statistics ======
====== Traffic class 0 ======
Packet latency average = 25.1174 (50 samples)
	minimum = 7 (50 samples)
	maximum = 149.74 (50 samples)
Network latency average = 25.1174 (50 samples)
	minimum = 7 (50 samples)
	maximum = 149.74 (50 samples)
Flit latency average = 25.2066 (50 samples)
	minimum = 7 (50 samples)
	maximum = 151.92 (50 samples)
Fragmentation average = 0 (50 samples)
	minimum = 0 (50 samples)
	maximum = 0 (50 samples)
Injected packet rate average = 0.0100605 (50 samples)
	minimum = 0.00673562 (50 samples)
	maximum = 0.013582 (50 samples)
Accepted packet rate average = 0.0100548 (50 samples)
	minimum = 0.00689076 (50 samples)
	maximum = 0.0134307 (50 samples)
Injected flit rate average = 0.0100605 (50 samples)
	minimum = 0.00673562 (50 samples)
	maximum = 0.013582 (50 samples)
Accepted flit rate average = 0.0100548 (50 samples)
	minimum = 0.00689076 (50 samples)
	maximum = 0.0134307 (50 samples)
Injected packet size average = 1 (50 samples)
Accepted packet size average = 1 (50 samples)
Hops average = 4.57036 (50 samples)
Total run time 5.08221
