BEGIN Configuration File: /tmp/tmp0f9l7jzb.cfg
topology = mesh;
k = 4;
n = 2;
routing_function = planar_adapt;
num_vcs = 4;
vc_buf_size = 4;
wait_for_tail_credit = 1;
vc_allocator = islip;
sw_allocator = islip;
alloc_iters = 1;
credit_delay = 2;
routing_delay = 1;
vc_alloc_delay = 1;
sw_alloc_delay = 1;
input_speedup = 2;
output_speedup = 1;
internal_speedup = 1.0;
traffic = transpose;
packet_size = 1;
sim_type = latency;
injection_rate = 0.01;
warmup_periods = 3;
sample_period = 500;
sim_count = 50;
seed = 2;
link_failures = 0;
fail_seed = 202;

END Configuration File: /tmp/tmp0f9l7jzb.cfg
Class 0:
Packet latency average = 18.9516
	minimum = 7
	maximum = 37
Network latency average = 18.9516
	minimum = 7
	maximum = 37
Slowest packet = 1
Flit latency average = 18.9516
	minimum = 7
	maximum = 37
Slowest flit = 1
Fragmentation average = 0
	minimum = 0
	maximum = 0
Injected packet rate average = 0.008125
	minimum = 0 (at node 9)
	maximum = 0.014 (at node 5)
Accepted packet rate average = 0.00775
	minimum = 0 (at node 6)
	maximum = 0.014 (at node 5)
Injected flit rate average = 0.008125
	minimum = 0 (at node 9)
	maximum = 0.014 (at node 5)
Accepted flit rate average= 0.00775
	minimum = 0 (at node 6)
	maximum = 0.014 (at node 5)
Injected packet length average = 1
Accepted packet length average = 1
Total in-flight flits = 3 (0 measured)
latency change    = 1
throughput change = 1
Class 0:
Packet latency average = 18.2197
	minimum = 7
	maximum = 37
Network latency average = 18.2197
	minimum = 7
	maximum = 37
Slowest packet = 1
Flit latency average = 18.2197
	minimum = 7
	maximum = 37
Slowest flit = 1
Fragmentation average = 0
	minimum = 0
	maximum = 0
Injected packet rate average = 0.008625
	minimum = 0.003 (at node 2)
	maximum = 0.015 (at node 13)
Accepted packet rate average = 0.00825
	minimum = 0.003 (at node 6)
	maximum = 0.013 (at node 7)
Injected flit rate average = 0.008625
	minimum = 0.003 (at node 2)
	maximum = 0.015 (at node 13)
Accepted flit rate average= 0.00825
	minimum = 0.003 (at node 6)
	maximum = 0.013 (at node 7)
Injected packet length average = 1
Accepted packet length average = 1
Total in-flight flits = 6 (0 measured)
latency change    = 0.0401717
throughput change = 0.0606061
Class 0:
Packet latency average = 18.7647
	minimum = 7
	maximum = 37
Network latency average = 18.7647
	minimum = 7
	maximum = 37
Slowest packet = 131
Flit latency average = 18.7647
	minimum = 7
	maximum = 37
Slowest flit = 131
Fragmentation average = 0
	minimum = 0
	maximum = 0
Injected packet rate average = 0.01
	minimum = 0.002 (at node 3)
	maximum = 0.022 (at node 13)
Accepted packet rate average = 0.010625
	minimum = 0.002 (at node 4)
	maximum = 0.026 (at node 7)
Injected flit rate average = 0.01
	minimum = 0.002 (at node 3)
	maximum = 0.022 (at node 13)
Accepted flit rate average= 0.010625
	minimum = 0.002 (at node 4)
	maximum = 0.026 (at node 7)
Injected packet length average = 1
Accepted packet length average = 1
Total in-flight flits = 1 (0 measured)
latency change    = 0.0290444
throughput change = 0.223529
Warmed up ...Time used is 1500 cycles
Class 0:
Packet latency average = 19.069
	minimum = 7
	maximum = 37
Network latency average = 19.069
	minimum = 7
	maximum = 37
Slowest packet = 220
Flit latency average = 19.0455
	minimum = 7
	maximum = 37
Slowest flit = 220
Fragmentation average = 0
	minimum = 0
	maximum = 0
Injected packet rate average = 0.01125
	minimum = 0.004 (at node 15)
	maximum = 0.022 (at node 10)
Accepted packet rate average = 0.011
	minimum = 0.004 (at node 8)
	maximum = 0.022 (at node 10)
Injected flit rate average = 0.01125
	minimum = 0.004 (at node 15)
	maximum = 0.022 (at node 10)
Accepted flit rate average= 0.011
	minimum = 0.004 (at node 8)
	maximum = 0.022 (at node 10)
Injected packet length average = 1
Accepted packet length average = 1
Total in-flight flits = 3 (3 measured)
latency change    = 0.0159557
throughput change = 0.0340909
Class 0:
Packet latency average = 19.7108
	minimum = 7
	maximum = 37
Network latency average = 19.7108
	minimum = 7
	maximum = 37
Slowest packet = 220
Flit latency average = 19.6946
	minimum = 7
	maximum = 37
Slowest flit = 220
Fragmentation average = 0
	minimum = 0
	maximum = 0
Injected packet rate average = 0.0105
	minimum = 0.006 (at node 2)
	maximum = 0.015 (at node 3)
Accepted packet rate average = 0.0104375
	minimum = 0.006 (at node 8)
	maximum = 0.015 (at node 10)
Injected flit rate average = 0.0105
	minimum = 0.006 (at node 2)
	maximum = 0.015 (at node 3)
Accepted flit rate average= 0.0104375
	minimum = 0.006 (at node 8)
	maximum = 0.015 (at node 10)
Injected packet length average = 1
Accepted packet length average = 1
Total in-flight flits = 2 (2 measured)
latency change    = 0.0325647
throughput change = 0.0538922
Class 0:
Packet latency average = 20.0556
	minimum = 7
	maximum = 37
Network latency average = 20.0556
	minimum = 7
	maximum = 37
Slowest packet = 220
Flit latency average = 20.0426
	minimum = 7
	maximum = 37
Slowest flit = 220
Fragmentation average = 0
	minimum = 0
	maximum = 0
Injected packet rate average = 0.00983333
	minimum = 0.00666667 (at node 1)
	maximum = 0.0153333 (at node 3)
Accepted packet rate average = 0.00979167
	minimum = 0.00666667 (at node 2)
	maximum = 0.0153333 (at node 12)
Injected flit rate average = 0.00983333
	minimum = 0.00666667 (at node 1)
	maximum = 0.0153333 (at node 3)
Accepted flit rate average= 0.00979167
	minimum = 0.00666667 (at node 2)
	maximum = 0.0153333 (at node 12)
Injected packet length average = 1
Accepted packet length average = 1
Total in-flight flits = 2 (2 measured)
latency change    = 0.0171879
throughput change = 0.0659574
Class 0:
Packet latency average = 19.8789
	minimum = 7
	maximum = 37
Network latency average = 19.8789
	minimum = 7
	maximum = 37
Slowest packet = 220
Flit latency average = 19.87
	minimum = 7
	maximum = 37
Slowest flit = 220
Fragmentation average = 0
	minimum = 0
	maximum = 0
Injected packet rate average = 0.0101875
	minimum = 0.0065 (at node 8)
	maximum = 0.014 (at node 10)
Accepted packet rate average = 0.0100938
	minimum = 0.0065 (at node 2)
	maximum = 0.014 (at node 10)
Injected flit rate average = 0.0101875
	minimum = 0.0065 (at node 8)
	maximum = 0.014 (at node 10)
Accepted flit rate average= 0.0100938
	minimum = 0.0065 (at node 2)
	maximum = 0.014 (at node 10)
Injected packet length average = 1
Accepted packet length average = 1
Total in-flight flits = 4 (4 measured)
latency change    = 0.0088875
throughput change = 0.0299278
Class 0:
Packet latency average = 19.7868
	minimum = 7
	maximum = 37
Network latency average = 19.7868
	minimum = 7
	maximum = 37
Slowest packet = 220
Flit latency average = 19.78
	minimum = 7
	maximum = 37
Slowest flit = 220
Fragmentation average = 0
	minimum = 0
	maximum = 0
Injected packet rate average = 0.010275
	minimum = 0.0076 (at node 1)
	maximum = 0.0136 (at node 12)
Accepted packet rate average = 0.010225
	minimum = 0.0076 (at node 2)
	maximum = 0.0132 (at node 3)
Injected flit rate average = 0.010275
	minimum = 0.0076 (at node 1)
	maximum = 0.0136 (at node 12)
Accepted flit rate average= 0.010225
	minimum = 0.0076 (at node 2)
	maximum = 0.0132 (at node 3)
Injected packet length average = 1
Accepted packet length average = 1
Total in-flight flits = 3 (3 measured)
latency change    = 0.0046555
throughput change = 0.0128362
Class 0:
Packet latency average = 19.681
	minimum = 7
	maximum = 37
Network latency average = 19.681
	minimum = 7
	maximum = 37
Slowest packet = 220
Flit latency average = 19.6755
	minimum = 7
	maximum = 37
Slowest flit = 220
Fragmentation average = 0
	minimum = 0
	maximum = 0
Injected packet rate average = 0.0103125
	minimum = 0.00766667 (at node 1)
	maximum = 0.0136667 (at node 10)
Accepted packet rate average = 0.0102083
	minimum = 0.00766667 (at node 8)
	maximum = 0.0133333 (at node 10)
Injected flit rate average = 0.0103125
	minimum = 0.00766667 (at node 1)
	maximum = 0.0136667 (at node 10)
Accepted flit rate average= 0.0102083
	minimum = 0.00766667 (at node 8)
	maximum = 0.0133333 (at node 10)
Injected packet length average = 1
Accepted packet length average = 1
Total in-flight flits = 6 (6 measured)
latency change    = 0.00537489
throughput change = 0.00163265
Draining all recorded packets ...
Draining remaining packets ...
Time taken is 4553 cycles
Class 0:
Packet latency average = 17.197
	minimum = 7
	maximum = 37
Network latency average = 17.197
	minimum = 7
	maximum = 37
Slowest packet = 731
Flit latency average = 17.197
	minimum = 7
	maximum = 37
Slowest flit = 731
Fragmentation average = 0
	minimum = 0
	maximum = 0
Injected packet rate average = 0.00875
	minimum = 0.004 (at node 7)
	maximum = 0.026 (at node 5)
Accepted packet rate average = 0.00825
	minimum = 0.004 (at node 2)
	maximum = 0.026 (at node 5)
Injected flit rate average = 0.00875
	minimum = 0.004 (at node 7)
	maximum = 0.026 (at node 5)
Accepted flit rate average= 0.00825
	minimum = 0.004 (at node 2)
	maximum = 0.026 (at node 5)
Injected packet length average = 1
Accepted packet length average = 1
Total in-flight flits = 4 (0 measured)
latency change    = 1
throughput change = 1
Class 0:
Packet latency average = 18.0382
	minimum = 7
	maximum = 37
Network latency average = 18.0382
	minimum = 7
	maximum = 37
Slowest packet = 731
Flit latency average = 18.0382
	minimum = 7
	maximum = 37
Slowest flit = 731
Fragmentation average = 0
	minimum = 0
	maximum = 0
Injected packet rate average = 0.01
	minimum = 0.005 (at node 2)
	maximum = 0.018 (at node 5)
Accepted packet rate average = 0.0098125
	minimum = 0.005 (at node 2)
	maximum = 0.018 (at node 5)
Injected flit rate average = 0.01
	minimum = 0.005 (at node 2)
	maximum = 0.018 (at node 5)
Accepted flit rate average= 0.0098125
	minimum = 0.005 (at node 2)
	maximum = 0.018 (at node 5)
Injected packet length average = 1
Accepted packet length average = 1
Total in-flight flits = 3 (0 measured)
latency change    = 0.0466369
throughput change = 0.159236
Class 0:
Packet latency average = 20.1974
	minimum = 7
	maximum = 40
Network latency average = 20.1974
	minimum = 7
	maximum = 40
Slowest packet = 871
Flit latency average = 20.1974
	minimum = 7
	maximum = 40
Slowest flit = 871
Fragmentation average = 0
	minimum = 0
	maximum = 0
Injected packet rate average = 0.009625
	minimum = 0.004 (at node 1)
	maximum = 0.018 (at node 9)
Accepted packet rate average = 0.0095
	minimum = 0.004 (at node 4)
	maximum = 0.016 (at node 7)
Injected flit rate average = 0.009625
	minimum = 0.004 (at node 1)
	maximum = 0.018 (at node 9)
Accepted flit rate average= 0.0095
	minimum = 0.004 (at node 4)
	maximum = 0.016 (at node 7)
Injected packet length average = 1
Accepted packet length average = 1
Total in-flight flits = 4 (0 measured)
latency change    = 0.106903
throughput change = 0.0328947
Warmed up ...Time used is 1500 cycles
Class 0:
Packet latency average = 19.9512
	minimum = 7
	maximum = 37
Network latency average = 19.9512
	minimum = 7
	maximum = 37
Slowest packet = 971
Flit latency average = 19.9302
	minimum = 7
	maximum = 37
Slowest flit = 971
Fragmentation average = 0
	minimum = 0
	maximum = 0
Injected packet rate average = 0.010625
	minimum = 0.004 (at node 6)
	maximum = 0.016 (at node 5)
Accepted packet rate average = 0.01075
	minimum = 0.004 (at node 9)
	maximum = 0.018 (at node 13)
Injected flit rate average = 0.010625
	minimum = 0.004 (at node 6)
	maximum = 0.016 (at node 5)
Accepted flit rate average= 0.01075
	minimum = 0.004 (at node 9)
	maximum = 0.018 (at node 13)
Injected packet length average = 1
Accepted packet length average = 1
Total in-flight flits = 3 (3 measured)
latency change    = 0.0123375
throughput change = 0.116279
Class 0:
Packet latency average = 20.046
	minimum = 7
	maximum = 37
Network latency average = 20.046
	minimum = 7
	maximum = 37
Slowest packet = 971
Flit latency average = 20.0337
	minimum = 7
	maximum = 37
Slowest flit = 971
Fragmentation average = 0
	minimum = 0
	maximum = 0
Injected packet rate average = 0.0109375
	minimum = 0.007 (at node 6)
	maximum = 0.015 (at node 5)
Accepted packet rate average = 0.011125
	minimum = 0.007 (at node 9)
	maximum = 0.015 (at node 5)
Injected flit rate average = 0.0109375
	minimum = 0.007 (at node 6)
	maximum = 0.015 (at node 5)
Accepted flit rate average= 0.011125
	minimum = 0.007 (at node 9)
	maximum = 0.015 (at node 5)
Injected packet length average = 1
Accepted packet length average = 1
Total in-flight flits = 1 (1 measured)
latency change    = 0.00472701
throughput change = 0.0337079
Class 0:
Packet latency average = 19.6087
	minimum = 7
	maximum = 37
Network latency average = 19.6087
	minimum = 7
	maximum = 37
Slowest packet = 971
Flit latency average = 19.607
	minimum = 7
	maximum = 37
Slowest flit = 971
Fragmentation average = 0
	minimum = 0
	maximum = 0
Injected packet rate average = 0.01075
	minimum = 0.00866667 (at node 2)
	maximum = 0.0153333 (at node 5)
Accepted packet rate average = 0.0107083
	minimum = 0.008 (at node 2)
	maximum = 0.0153333 (at node 5)
Injected flit rate average = 0.01075
	minimum = 0.00866667 (at node 2)
	maximum = 0.0153333 (at node 5)
Accepted flit rate average= 0.0107083
	minimum = 0.008 (at node 2)
	maximum = 0.0153333 (at node 5)
Injected packet length average = 1
Accepted packet length average = 1
Total in-flight flits = 5 (5 measured)
latency change    = 0.0223004
throughput change = 0.0389105
Class 0:
Packet latency average = 19.7927
	minimum = 7
	maximum = 37
Network latency average = 19.7927
	minimum = 7
	maximum = 37
Slowest packet = 971
Flit latency average = 19.7892
	minimum = 7
	maximum = 37
Slowest flit = 971
Fragmentation average = 0
	minimum = 0
	maximum = 0
Injected packet rate average = 0.0104375
	minimum = 0.008 (at node 6)
	maximum = 0.015 (at node 3)
Accepted packet rate average = 0.010375
	minimum = 0.008 (at node 9)
	maximum = 0.014 (at node 12)
Injected flit rate average = 0.0104375
	minimum = 0.008 (at node 6)
	maximum = 0.015 (at node 3)
Accepted flit rate average= 0.010375
	minimum = 0.008 (at node 9)
	maximum = 0.014 (at node 12)
Injected packet length average = 1
Accepted packet length average = 1
Total in-flight flits = 6 (6 measured)
latency change    = 0.00929572
throughput change = 0.0321285
Draining all recorded packets ...
Draining remaining packets ...
Time taken is 3525 cycles
Class 0:
Packet latency average = 20.4667
	minimum = 7
	maximum = 37
Network latency average = 20.4667
	minimum = 7
	maximum = 37
Slowest packet = 1287
Flit latency average = 20.4667
	minimum = 7
	maximum = 37
Slowest flit = 1287
Fragmentation average = 0
	minimum = 0
	maximum = 0
Injected packet rate average = 0.00975
	minimum = 0.002 (at node 11)
	maximum = 0.014 (at node 1)
Accepted packet rate average = 0.009375
	minimum = 0.002 (at node 14)
	maximum = 0.014 (at node 4)
Injected flit rate average = 0.00975
	minimum = 0.002 (at node 11)
	maximum = 0.014 (at node 1)
Accepted flit rate average= 0.009375
	minimum = 0.002 (at node 14)
	maximum = 0.014 (at node 4)
Injected packet length average = 1
Accepted packet length average = 1
Total in-flight flits = 3 (0 measured)
latency change    = 1
throughput change = 1
Class 0:
Packet latency average = 20.2121
	minimum = 7
	maximum = 37
Network latency average = 20.2121
	minimum = 7
	maximum = 37
Slowest packet = 1287
Flit latency average = 20.2121
	minimum = 7
	maximum = 37
Slowest flit = 1287
Fragmentation average = 0
	minimum = 0
	maximum = 0
Injected packet rate average = 0.0105625
	minimum = 0.006 (at node 5)
	maximum = 0.015 (at node 15)
Accepted packet rate average = 0.0103125
	minimum = 0.005 (at node 5)
	maximum = 0.015 (at node 15)
Injected flit rate average = 0.0105625
	minimum = 0.006 (at node 5)
	maximum = 0.015 (at node 15)
Accepted flit rate average= 0.0103125
	minimum = 0.005 (at node 5)
	maximum = 0.015 (at node 15)
Injected packet length average = 1
Accepted packet length average = 1
Total in-flight flits = 4 (0 measured)
latency change    = 0.0125937
throughput change = 0.0909091
Class 0:
Packet latency average = 17.3441
	minimum = 7
	maximum = 37
Network latency average = 17.3441
	minimum = 7
	maximum = 37
Slowest packet = 1465
Flit latency average = 17.3441
	minimum = 7
	maximum = 37
Slowest flit = 1465
Fragmentation average = 0
	minimum = 0
	maximum = 0
Injected packet rate average = 0.0115
	minimum = 0 (at node 7)
	maximum = 0.022 (at node 0)
Accepted packet rate average = 0.011625
	minimum = 0 (at node 7)
	maximum = 0.022 (at node 0)
Injected flit rate average = 0.0115
	minimum = 0 (at node 7)
	maximum = 0.022 (at node 0)
Accepted flit rate average= 0.011625
	minimum = 0 (at node 7)
	maximum = 0.022 (at node 0)
Injected packet length average = 1
Accepted packet length average = 1
Total in-flight flits = 3 (0 measured)
latency change    = 0.165361
throughput change = 0.112903
Warmed up ...Time used is 1500 cycles
Class 0:
Packet latency average = 18.4674
	minimum = 7
	maximum = 38
Network latency average = 18.4674
	minimum = 7
	maximum = 38
Slowest packet = 1582
Flit latency average = 18.8421
	minimum = 7
	maximum = 38
Slowest flit = 1582
Fragmentation average = 0
	minimum = 0
	maximum = 0
Injected packet rate average = 0.01175
	minimum = 0.004 (at node 1)
	maximum = 0.022 (at node 0)
Accepted packet rate average = 0.011875
	minimum = 0.004 (at node 4)
	maximum = 0.022 (at node 0)
Injected flit rate average = 0.01175
	minimum = 0.004 (at node 1)
	maximum = 0.022 (at node 0)
Accepted flit rate average= 0.011875
	minimum = 0.004 (at node 4)
	maximum = 0.022 (at node 0)
Injected packet length average = 1
Accepted packet length average = 1
Total in-flight flits = 2 (2 measured)
latency change    = 0.0608264
throughput change = 0.0210526
Class 0:
Packet latency average = 19.052
	minimum = 7
	maximum = 38
Network latency average = 19.052
	minimum = 7
	maximum = 38
Slowest packet = 1582
Flit latency average = 19.2443
	minimum = 7
	maximum = 38
Slowest flit = 1582
Fragmentation average = 0
	minimum = 0
	maximum = 0
Injected packet rate average = 0.011125
	minimum = 0.005 (at node 3)
	maximum = 0.019 (at node 14)
Accepted packet rate average = 0.011
	minimum = 0.005 (at node 4)
	maximum = 0.019 (at node 11)
Injected flit rate average = 0.011125
	minimum = 0.005 (at node 3)
	maximum = 0.019 (at node 14)
Accepted flit rate average= 0.011
	minimum = 0.005 (at node 4)
	maximum = 0.019 (at node 11)
Injected packet length average = 1
Accepted packet length average = 1
Total in-flight flits = 5 (5 measured)
latency change    = 0.0306861
throughput change = 0.0795455
Class 0:
Packet latency average = 19.7154
	minimum = 7
	maximum = 38
Network latency average = 19.7154
	minimum = 7
	maximum = 38
Slowest packet = 1582
Flit latency average = 19.8333
	minimum = 7
	maximum = 38
Slowest flit = 1582
Fragmentation average = 0
	minimum = 0
	maximum = 0
Injected packet rate average = 0.0113333
	minimum = 0.00466667 (at node 1)
	maximum = 0.018 (at node 6)
Accepted packet rate average = 0.01125
	minimum = 0.00466667 (at node 4)
	maximum = 0.018 (at node 9)
Injected flit rate average = 0.0113333
	minimum = 0.00466667 (at node 1)
	maximum = 0.018 (at node 6)
Accepted flit rate average= 0.01125
	minimum = 0.00466667 (at node 4)
	maximum = 0.018 (at node 9)
Injected packet length average = 1
Accepted packet length average = 1
Total in-flight flits = 5 (5 measured)
latency change    = 0.0336455
throughput change = 0.0222222
Class 0:
Packet latency average = 19.5209
	minimum = 7
	maximum = 38
Network latency average = 19.5209
	minimum = 7
	maximum = 38
Slowest packet = 1582
Flit latency average = 19.6105
	minimum = 7
	maximum = 38
Slowest flit = 1582
Fragmentation average = 0
	minimum = 0
	maximum = 0
Injected packet rate average = 0.0113125
	minimum = 0.0065 (at node 9)
	maximum = 0.0155 (at node 6)
Accepted packet rate average = 0.0113125
	minimum = 0.0065 (at node 6)
	maximum = 0.0155 (at node 9)
Injected flit rate average = 0.0113125
	minimum = 0.0065 (at node 9)
	maximum = 0.0155 (at node 6)
Accepted flit rate average= 0.0113125
	minimum = 0.0065 (at node 6)
	maximum = 0.0155 (at node 9)
Injected packet length average = 1
Accepted packet length average = 1
Total in-flight flits = 3 (3 measured)
latency change    = 0.00996186
throughput change = 0.00552486
Class 0:
Packet latency average = 19.5158
	minimum = 7
	maximum = 38
Network latency average = 19.5158
	minimum = 7
	maximum = 38
Slowest packet = 1582
Flit latency average = 19.5888
	minimum = 7
	maximum = 38
Slowest flit = 1582
Fragmentation average = 0
	minimum = 0
	maximum = 0
Injected packet rate average = 0.011075
	minimum = 0.0056 (at node 9)
	maximum = 0.0144 (at node 6)
Accepted packet rate average = 0.011125
	minimum = 0.0056 (at node 6)
	maximum = 0.0144 (at node 9)
Injected flit rate average = 0.011075
	minimum = 0.0056 (at node 9)
	maximum = 0.0144 (at node 6)
Accepted flit rate average= 0.011125
	minimum = 0.0056 (at node 6)
	maximum = 0.0144 (at node 9)
Injected packet length average = 1
Accepted packet length average = 1
Total in-flight flits = 1 (1 measured)
latency change    = 0.000258983
throughput change = 0.0168539
Draining all recorded packets ...
Draining remaining packets ...
Time taken is 4013 cycles
Class 0:
Packet latency average = 19.5072
	minimum = 7
	maximum = 37
Network latency average = 19.5072
	minimum = 7
	maximum = 37
Slowest packet = 2016
Flit latency average = 19.5072
	minimum = 7
	maximum = 37
Slowest flit = 2016
Fragmentation average = 0
	minimum = 0
	maximum = 0
Injected packet rate average = 0.009125
	minimum = 0.002 (at node 10)
	maximum = 0.014 (at node 6)
Accepted packet rate average = 0.008625
	minimum = 0.002 (at node 10)
	maximum = 0.012 (at node 0)
Injected flit rate average = 0.009125
	minimum = 0.002 (at node 10)
	maximum = 0.014 (at node 6)
Accepted flit rate average= 0.008625
	minimum = 0.002 (at node 10)
	maximum = 0.012 (at node 0)
Injected packet length average = 1
Accepted packet length average = 1
Total in-flight flits = 4 (0 measured)
latency change    = 1
throughput change = 1
Class 0:
Packet latency average = 19.6383
	minimum = 7
	maximum = 45
Network latency average = 19.6383
	minimum = 7
	maximum = 45
Slowest packet = 2072
Flit latency average = 19.6383
	minimum = 7
	maximum = 45
Slowest flit = 2072
Fragmentation average = 0
	minimum = 0
	maximum = 0
Injected packet rate average = 0.009
	minimum = 0.003 (at node 10)
	maximum = 0.013 (at node 0)
Accepted packet rate average = 0.0088125
	minimum = 0.003 (at node 10)
	maximum = 0.013 (at node 0)
Injected flit rate average = 0.009
	minimum = 0.003 (at node 10)
	maximum = 0.013 (at node 0)
Accepted flit rate average= 0.0088125
	minimum = 0.003 (at node 10)
	maximum = 0.013 (at node 0)
Injected packet length average = 1
Accepted packet length average = 1
Total in-flight flits = 3 (0 measured)
latency change    = 0.00667326
throughput change = 0.0212766
Class 0:
Packet latency average = 19.7912
	minimum = 7
	maximum = 37
Network latency average = 19.7912
	minimum = 7
	maximum = 37
Slowest packet = 2137
Flit latency average = 19.7912
	minimum = 7
	maximum = 37
Slowest flit = 2137
Fragmentation average = 0
	minimum = 0
	maximum = 0
Injected packet rate average = 0.0115
	minimum = 0.004 (at node 6)
	maximum = 0.024 (at node 14)
Accepted packet rate average = 0.011375
	minimum = 0.004 (at node 9)
	maximum = 0.02 (at node 6)
Injected flit rate average = 0.0115
	minimum = 0.004 (at node 6)
	maximum = 0.024 (at node 14)
Accepted flit rate average= 0.011375
	minimum = 0.004 (at node 9)
	maximum = 0.02 (at node 6)
Injected packet length average = 1
Accepted packet length average = 1
Total in-flight flits = 4 (0 measured)
latency change    = 0.0077262
throughput change = 0.225275
Warmed up ...Time used is 1500 cycles
Class 0:
Packet latency average = 20.1733
	minimum = 7
	maximum = 37
Network latency average = 20.1733
	minimum = 7
	maximum = 37
Slowest packet = 2227
Flit latency average = 20.1772
	minimum = 7
	maximum = 37
Slowest flit = 2227
Fragmentation average = 0
	minimum = 0
	maximum = 0
Injected packet rate average = 0.009625
	minimum = 0.004 (at node 8)
	maximum = 0.016 (at node 4)
Accepted packet rate average = 0.009875
	minimum = 0.004 (at node 2)
	maximum = 0.016 (at node 7)
Injected flit rate average = 0.009625
	minimum = 0.004 (at node 8)
	maximum = 0.016 (at node 4)
Accepted flit rate average= 0.009875
	minimum = 0.004 (at node 2)
	maximum = 0.016 (at node 7)
Injected packet length average = 1
Accepted packet length average = 1
Total in-flight flits = 2 (2 measured)
latency change    = 0.0189421
throughput change = 0.151899
Class 0:
Packet latency average = 18.8411
	minimum = 7
	maximum = 37
Network latency average = 18.8411
	minimum = 7
	maximum = 37
Slowest packet = 2227
Flit latency average = 18.8774
	minimum = 7
	maximum = 37
Slowest flit = 2227
Fragmentation average = 0
	minimum = 0
	maximum = 0
Injected packet rate average = 0.0096875
	minimum = 0.005 (at node 3)
	maximum = 0.015 (at node 5)
Accepted packet rate average = 0.0096875
	minimum = 0.005 (at node 2)
	maximum = 0.015 (at node 5)
Injected flit rate average = 0.0096875
	minimum = 0.005 (at node 3)
	maximum = 0.015 (at node 5)
Accepted flit rate average= 0.0096875
	minimum = 0.005 (at node 2)
	maximum = 0.015 (at node 5)
Injected packet length average = 1
Accepted packet length average = 1
Total in-flight flits = 4 (4 measured)
latency change    = 0.0707112
throughput change = 0.0193548
Class 0:
Packet latency average = 19.2544
	minimum = 7
	maximum = 37
Network latency average = 19.2544
	minimum = 7
	maximum = 37
Slowest packet = 2227
Flit latency average = 19.2716
	minimum = 7
	maximum = 37
Slowest flit = 2227
Fragmentation average = 0
	minimum = 0
	maximum = 0
Injected packet rate average = 0.00975
	minimum = 0.006 (at node 3)
	maximum = 0.0126667 (at node 2)
Accepted packet rate average = 0.00966667
	minimum = 0.006 (at node 2)
	maximum = 0.0126667 (at node 5)
Injected flit rate average = 0.00975
	minimum = 0.006 (at node 3)
	maximum = 0.0126667 (at node 2)
Accepted flit rate average= 0.00966667
	minimum = 0.006 (at node 2)
	maximum = 0.0126667 (at node 5)
Injected packet length average = 1
Accepted packet length average = 1
Total in-flight flits = 6 (6 measured)
latency change    = 0.0214666
throughput change = 0.00215517
Class 0:
Packet latency average = 19.1062
	minimum = 7
	maximum = 37
Network latency average = 19.1062
	minimum = 7
	maximum = 37
Slowest packet = 2227
Flit latency average = 19.1204
	minimum = 7
	maximum = 37
Slowest flit = 2227
Fragmentation average = 0
	minimum = 0
	maximum = 0
Injected packet rate average = 0.010125
	minimum = 0.0065 (at node 3)
	maximum = 0.012 (at node 1)
Accepted packet rate average = 0.010125
	minimum = 0.0065 (at node 12)
	maximum = 0.012 (at node 1)
Injected flit rate average = 0.010125
	minimum = 0.0065 (at node 3)
	maximum = 0.012 (at node 1)
Accepted flit rate average= 0.010125
	minimum = 0.0065 (at node 12)
	maximum = 0.012 (at node 1)
Injected packet length average = 1
Accepted packet length average = 1
Total in-flight flits = 4 (4 measured)
latency change    = 0.00775327
throughput change = 0.0452675
Class 0:
Packet latency average = 19.0414
	minimum = 7
	maximum = 37
Network latency average = 19.0414
	minimum = 7
	maximum = 37
Slowest packet = 2227
Flit latency average = 19.053
	minimum = 7
	maximum = 37
Slowest flit = 2227
Fragmentation average = 0
	minimum = 0
	maximum = 0
Injected packet rate average = 0.01035
	minimum = 0.008 (at node 14)
	maximum = 0.0128 (at node 1)
Accepted packet rate average = 0.010375
	minimum = 0.008 (at node 12)
	maximum = 0.0124 (at node 4)
Injected flit rate average = 0.01035
	minimum = 0.008 (at node 14)
	maximum = 0.0128 (at node 1)
Accepted flit rate average= 0.010375
	minimum = 0.008 (at node 12)
	maximum = 0.0124 (at node 4)
Injected packet length average = 1
Accepted packet length average = 1
Total in-flight flits = 3 (3 measured)
latency change    = 0.00340771
throughput change = 0.0240964
Draining all recorded packets ...
Draining remaining packets ...
Time taken is 4017 cycles
Class 0:
Packet latency average = 21.7297
	minimum = 7
	maximum = 37
Network latency average = 21.7297
	minimum = 7
	maximum = 37
Slowest packet = 2649
Flit latency average = 21.7297
	minimum = 7
	maximum = 37
Slowest flit = 2649
Fragmentation average = 0
	minimum = 0
	maximum = 0
Injected packet rate average = 0.009375
	minimum = 0.004 (at node 7)
	maximum = 0.016 (at node 3)
Accepted packet rate average = 0.00925
	minimum = 0.004 (at node 10)
	maximum = 0.016 (at node 3)
Injected flit rate average = 0.009375
	minimum = 0.004 (at node 7)
	maximum = 0.016 (at node 3)
Accepted flit rate average= 0.00925
	minimum = 0.004 (at node 10)
	maximum = 0.016 (at node 3)
Injected packet length average = 1
Accepted packet length average = 1
Total in-flight flits = 1 (0 measured)
latency change    = 1
throughput change = 1
Class 0:
Packet latency average = 20.4929
	minimum = 7
	maximum = 46
Network latency average = 20.4929
	minimum = 7
	maximum = 46
Slowest packet = 2764
Flit latency average = 20.4929
	minimum = 7
	maximum = 46
Slowest flit = 2764
Fragmentation average = 0
	minimum = 0
	maximum = 0
Injected packet rate average = 0.0089375
	minimum = 0.002 (at node 7)
	maximum = 0.015 (at node 8)
Accepted packet rate average = 0.00875
	minimum = 0.002 (at node 13)
	maximum = 0.015 (at node 2)
Injected flit rate average = 0.0089375
	minimum = 0.002 (at node 7)
	maximum = 0.015 (at node 8)
Accepted flit rate average= 0.00875
	minimum = 0.002 (at node 13)
	maximum = 0.015 (at node 2)
Injected packet length average = 1
Accepted packet length average = 1
Total in-flight flits = 3 (0 measured)
latency change    = 0.0603563
throughput change = 0.0571429
Class 0:
Packet latency average = 19.3288
	minimum = 7
	maximum = 37
Network latency average = 19.3288
	minimum = 7
	maximum = 37
Slowest packet = 2788
Flit latency average = 19.3288
	minimum = 7
	maximum = 37
Slowest flit = 2788
Fragmentation average = 0
	minimum = 0
	maximum = 0
Injected packet rate average = 0.00925
	minimum = 0.002 (at node 8)
	maximum = 0.02 (at node 6)
Accepted packet rate average = 0.009125
	minimum = 0.002 (at node 2)
	maximum = 0.018 (at node 9)
Injected flit rate average = 0.00925
	minimum = 0.002 (at node 8)
	maximum = 0.02 (at node 6)
Accepted flit rate average= 0.009125
	minimum = 0.002 (at node 2)
	maximum = 0.018 (at node 9)
Injected packet length average = 1
Accepted packet length average = 1
Total in-flight flits = 4 (0 measured)
latency change    = 0.0602258
throughput change = 0.0410959
Warmed up ...Time used is 1500 cycles
Class 0:
Packet latency average = 18.0811
	minimum = 7
	maximum = 37
Network latency average = 18.0811
	minimum = 7
	maximum = 37
Slowest packet = 2883
Flit latency average = 18.0256
	minimum = 7
	maximum = 37
Slowest flit = 2883
Fragmentation average = 0
	minimum = 0
	maximum = 0
Injected packet rate average = 0.00975
	minimum = 0.004 (at node 3)
	maximum = 0.016 (at node 0)
Accepted packet rate average = 0.00975
	minimum = 0.004 (at node 12)
	maximum = 0.016 (at node 0)
Injected flit rate average = 0.00975
	minimum = 0.004 (at node 3)
	maximum = 0.016 (at node 0)
Accepted flit rate average= 0.00975
	minimum = 0.004 (at node 12)
	maximum = 0.016 (at node 0)
Injected packet length average = 1
Accepted packet length average = 1
Total in-flight flits = 4 (4 measured)
latency change    = 0.0690051
throughput change = 0.0641026
Class 0:
Packet latency average = 18.9789
	minimum = 7
	maximum = 37
Network latency average = 18.9789
	minimum = 7
	maximum = 37
Slowest packet = 2883
Flit latency average = 18.9247
	minimum = 7
	maximum = 37
Slowest flit = 2883
Fragmentation average = 0
	minimum = 0
	maximum = 0
Injected packet rate average = 0.008875
	minimum = 0.005 (at node 10)
	maximum = 0.015 (at node 0)
Accepted packet rate average = 0.009125
	minimum = 0.006 (at node 10)
	maximum = 0.015 (at node 0)
Injected flit rate average = 0.008875
	minimum = 0.005 (at node 10)
	maximum = 0.015 (at node 0)
Accepted flit rate average= 0.009125
	minimum = 0.006 (at node 10)
	maximum = 0.015 (at node 0)
Injected packet length average = 1
Accepted packet length average = 1
Total in-flight flits = 0 (0 measured)
latency change    = 0.0473048
throughput change = 0.0684932
Class 0:
Packet latency average = 19.7366
	minimum = 7
	maximum = 37
Network latency average = 19.7366
	minimum = 7
	maximum = 37
Slowest packet = 2883
Flit latency average = 19.6842
	minimum = 7
	maximum = 37
Slowest flit = 2883
Fragmentation average = 0
	minimum = 0
	maximum = 0
Injected packet rate average = 0.00866667
	minimum = 0.00466667 (at node 10)
	maximum = 0.0126667 (at node 2)
Accepted packet rate average = 0.00870833
	minimum = 0.00533333 (at node 10)
	maximum = 0.012 (at node 8)
Injected flit rate average = 0.00866667
	minimum = 0.00466667 (at node 10)
	maximum = 0.0126667 (at node 2)
Accepted flit rate average= 0.00870833
	minimum = 0.00533333 (at node 10)
	maximum = 0.012 (at node 8)
Injected packet length average = 1
Accepted packet length average = 1
Total in-flight flits = 3 (3 measured)
latency change    = 0.0383912
throughput change = 0.0478469
Class 0:
Packet latency average = 20.6411
	minimum = 7
	maximum = 37
Network latency average = 20.6411
	minimum = 7
	maximum = 37
Slowest packet = 2883
Flit latency average = 20.5911
	minimum = 7
	maximum = 37
Slowest flit = 2883
Fragmentation average = 0
	minimum = 0
	maximum = 0
Injected packet rate average = 0.00909375
	minimum = 0.0045 (at node 10)
	maximum = 0.014 (at node 12)
Accepted packet rate average = 0.00909375
	minimum = 0.005 (at node 10)
	maximum = 0.0135 (at node 3)
Injected flit rate average = 0.00909375
	minimum = 0.0045 (at node 10)
	maximum = 0.014 (at node 12)
Accepted flit rate average= 0.00909375
	minimum = 0.005 (at node 10)
	maximum = 0.0135 (at node 3)
Injected packet length average = 1
Accepted packet length average = 1
Total in-flight flits = 4 (4 measured)
latency change    = 0.0438217
throughput change = 0.0423826
Class 0:
Packet latency average = 20.389
	minimum = 7
	maximum = 37
Network latency average = 20.389
	minimum = 7
	maximum = 37
Slowest packet = 2883
Flit latency average = 20.3523
	minimum = 7
	maximum = 37
Slowest flit = 2883
Fragmentation average = 0
	minimum = 0
	maximum = 0
Injected packet rate average = 0.009225
	minimum = 0.0064 (at node 10)
	maximum = 0.014 (at node 12)
Accepted packet rate average = 0.009225
	minimum = 0.0068 (at node 10)
	maximum = 0.014 (at node 3)
Injected flit rate average = 0.009225
	minimum = 0.0064 (at node 10)
	maximum = 0.014 (at node 12)
Accepted flit rate average= 0.009225
	minimum = 0.0068 (at node 10)
	maximum = 0.014 (at node 3)
Injected packet length average = 1
Accepted packet length average = 1
Total in-flight flits = 4 (4 measured)
latency change    = 0.0123632
throughput change = 0.0142276
Draining all recorded packets ...
Draining remaining packets ...
Time taken is 4039 cycles
Class 0:
Packet latency average = 18.7895
	minimum = 7
	maximum = 41
Network latency average = 18.7895
	minimum = 7
	maximum = 41
Slowest packet = 3289
Flit latency average = 18.7895
	minimum = 7
	maximum = 41
Slowest flit = 3289
Fragmentation average = 0
	minimum = 0
	maximum = 0
Injected packet rate average = 0.01225
	minimum = 0.006 (at node 9)
	maximum = 0.024 (at node 15)
Accepted packet rate average = 0.011875
	minimum = 0.006 (at node 6)
	maximum = 0.024 (at node 15)
Injected flit rate average = 0.01225
	minimum = 0.006 (at node 9)
	maximum = 0.024 (at node 15)
Accepted flit rate average= 0.011875
	minimum = 0.006 (at node 6)
	maximum = 0.024 (at node 15)
Injected packet length average = 1
Accepted packet length average = 1
Total in-flight flits = 3 (0 measured)
latency change    = 1
throughput change = 1
Class 0:
Packet latency average = 19.3446
	minimum = 7
	maximum = 41
Network latency average = 19.3446
	minimum = 7
	maximum = 41
Slowest packet = 3289
Flit latency average = 19.3446
	minimum = 7
	maximum = 41
Slowest flit = 3289
Fragmentation average = 0
	minimum = 0
	maximum = 0
Injected packet rate average = 0.011375
	minimum = 0.007 (at node 9)
	maximum = 0.017 (at node 3)
Accepted packet rate average = 0.0110625
	minimum = 0.007 (at node 6)
	maximum = 0.015 (at node 5)
Injected flit rate average = 0.011375
	minimum = 0.007 (at node 9)
	maximum = 0.017 (at node 3)
Accepted flit rate average= 0.0110625
	minimum = 0.007 (at node 6)
	maximum = 0.015 (at node 5)
Injected packet length average = 1
Accepted packet length average = 1
Total in-flight flits = 5 (0 measured)
latency change    = 0.0286984
throughput change = 0.0734463
Class 0:
Packet latency average = 19.8
	minimum = 7
	maximum = 37
Network latency average = 19.8
	minimum = 7
	maximum = 37
Slowest packet = 3406
Flit latency average = 19.8
	minimum = 7
	maximum = 37
Slowest flit = 3406
Fragmentation average = 0
	minimum = 0
	maximum = 0
Injected packet rate average = 0.01025
	minimum = 0.004 (at node 9)
	maximum = 0.022 (at node 7)
Accepted packet rate average = 0.010625
	minimum = 0.004 (at node 6)
	maximum = 0.022 (at node 13)
Injected flit rate average = 0.01025
	minimum = 0.004 (at node 9)
	maximum = 0.022 (at node 7)
Accepted flit rate average= 0.010625
	minimum = 0.004 (at node 6)
	maximum = 0.022 (at node 13)
Injected packet length average = 1
Accepted packet length average = 1
Total in-flight flits = 2 (0 measured)
latency change    = 0.0229983
throughput change = 0.0411765
Warmed up ...Time used is 1500 cycles
Class 0:
Packet latency average = 18.939
	minimum = 7
	maximum = 41
Network latency average = 18.939
	minimum = 7
	maximum = 41
Slowest packet = 3499
Flit latency average = 19.131
	minimum = 7
	maximum = 41
Slowest flit = 3499
Fragmentation average = 0
	minimum = 0
	maximum = 0
Injected packet rate average = 0.010375
	minimum = 0.004 (at node 12)
	maximum = 0.02 (at node 1)
Accepted packet rate average = 0.0105
	minimum = 0.004 (at node 3)
	maximum = 0.02 (at node 4)
Injected flit rate average = 0.010375
	minimum = 0.004 (at node 12)
	maximum = 0.02 (at node 1)
Accepted flit rate average= 0.0105
	minimum = 0.004 (at node 3)
	maximum = 0.02 (at node 4)
Injected packet length average = 1
Accepted packet length average = 1
Total in-flight flits = 1 (1 measured)
latency change    = 0.0454604
throughput change = 0.0119048
Class 0:
Packet latency average = 19.4062
	minimum = 7
	maximum = 41
Network latency average = 19.4062
	minimum = 7
	maximum = 41
Slowest packet = 3499
Flit latency average = 19.5
	minimum = 7
	maximum = 41
Slowest flit = 3499
Fragmentation average = 0
	minimum = 0
	maximum = 0
Injected packet rate average = 0.0100625
	minimum = 0.004 (at node 10)
	maximum = 0.016 (at node 1)
Accepted packet rate average = 0.010125
	minimum = 0.004 (at node 10)
	maximum = 0.016 (at node 4)
Injected flit rate average = 0.0100625
	minimum = 0.004 (at node 10)
	maximum = 0.016 (at node 1)
Accepted flit rate average= 0.010125
	minimum = 0.004 (at node 10)
	maximum = 0.016 (at node 4)
Injected packet length average = 1
Accepted packet length average = 1
Total in-flight flits = 1 (1 measured)
latency change    = 0.024076
throughput change = 0.037037
Class 0:
Packet latency average = 19.3862
	minimum = 7
	maximum = 41
Network latency average = 19.3862
	minimum = 7
	maximum = 41
Slowest packet = 3499
Flit latency average = 19.4476
	minimum = 7
	maximum = 41
Slowest flit = 3499
Fragmentation average = 0
	minimum = 0
	maximum = 0
Injected packet rate average = 0.0104167
	minimum = 0.00666667 (at node 2)
	maximum = 0.016 (at node 13)
Accepted packet rate average = 0.0103333
	minimum = 0.00666667 (at node 10)
	maximum = 0.0153333 (at node 7)
Injected flit rate average = 0.0104167
	minimum = 0.00666667 (at node 2)
	maximum = 0.016 (at node 13)
Accepted flit rate average= 0.0103333
	minimum = 0.00666667 (at node 10)
	maximum = 0.0153333 (at node 7)
Injected packet length average = 1
Accepted packet length average = 1
Total in-flight flits = 4 (4 measured)
latency change    = 0.00103533
throughput change = 0.0201613
Draining all recorded packets ...
Draining remaining packets ...
Time taken is 3040 cycles
Class 0:
Packet latency average = 20.1111
	minimum = 7
	maximum = 41
Network latency average = 20.1111
	minimum = 7
	maximum = 41
Slowest packet = 3756
Flit latency average = 20.1111
	minimum = 7
	maximum = 41
Slowest flit = 3756
Fragmentation average = 0
	minimum = 0
	maximum = 0
Injected packet rate average = 0.009625
	minimum = 0.002 (at node 1)
	maximum = 0.016 (at node 8)
Accepted packet rate average = 0.009
	minimum = 0.002 (at node 4)
	maximum = 0.014 (at node 2)
Injected flit rate average = 0.009625
	minimum = 0.002 (at node 1)
	maximum = 0.016 (at node 8)
Accepted flit rate average= 0.009
	minimum = 0.002 (at node 4)
	maximum = 0.014 (at node 2)
Injected packet length average = 1
Accepted packet length average = 1
Total in-flight flits = 5 (0 measured)
latency change    = 1
throughput change = 1
Class 0:
Packet latency average = 19.9926
	minimum = 7
	maximum = 41
Network latency average = 19.9926
	minimum = 7
	maximum = 41
Slowest packet = 3756
Flit latency average = 19.9926
	minimum = 7
	maximum = 41
Slowest flit = 3756
Fragmentation average = 0
	minimum = 0
	maximum = 0
Injected packet rate average = 0.0086875
	minimum = 0.004 (at node 0)
	maximum = 0.014 (at node 8)
Accepted packet rate average = 0.0084375
	minimum = 0.004 (at node 0)
	maximum = 0.014 (at node 2)
Injected flit rate average = 0.0086875
	minimum = 0.004 (at node 0)
	maximum = 0.014 (at node 8)
Accepted flit rate average= 0.0084375
	minimum = 0.004 (at node 0)
	maximum = 0.014 (at node 2)
Injected packet length average = 1
Accepted packet length average = 1
Total in-flight flits = 4 (0 measured)
latency change    = 0.00592812
throughput change = 0.0666667
Class 0:
Packet latency average = 19.942
	minimum = 7
	maximum = 38
Network latency average = 19.942
	minimum = 7
	maximum = 38
Slowest packet = 3927
Flit latency average = 19.942
	minimum = 7
	maximum = 38
Slowest flit = 3927
Fragmentation average = 0
	minimum = 0
	maximum = 0
Injected packet rate average = 0.0085
	minimum = 0.002 (at node 14)
	maximum = 0.014 (at node 11)
Accepted packet rate average = 0.008625
	minimum = 0.004 (at node 5)
	maximum = 0.014 (at node 15)
Injected flit rate average = 0.0085
	minimum = 0.002 (at node 14)
	maximum = 0.014 (at node 11)
Accepted flit rate average= 0.008625
	minimum = 0.004 (at node 5)
	maximum = 0.014 (at node 15)
Injected packet length average = 1
Accepted packet length average = 1
Total in-flight flits = 3 (0 measured)
latency change    = 0.00253553
throughput change = 0.0217391
Warmed up ...Time used is 1500 cycles
Class 0:
Packet latency average = 19.7922
	minimum = 7
	maximum = 40
Network latency average = 19.7922
	minimum = 7
	maximum = 40
Slowest packet = 4003
Flit latency average = 20.0625
	minimum = 7
	maximum = 40
Slowest flit = 4003
Fragmentation average = 0
	minimum = 0
	maximum = 0
Injected packet rate average = 0.00975
	minimum = 0.004 (at node 4)
	maximum = 0.016 (at node 1)
Accepted packet rate average = 0.01
	minimum = 0.004 (at node 1)
	maximum = 0.016 (at node 4)
Injected flit rate average = 0.00975
	minimum = 0.004 (at node 4)
	maximum = 0.016 (at node 1)
Accepted flit rate average= 0.01
	minimum = 0.004 (at node 1)
	maximum = 0.016 (at node 4)
Injected packet length average = 1
Accepted packet length average = 1
Total in-flight flits = 1 (1 measured)
latency change    = 0.00756971
throughput change = 0.1375
Class 0:
Packet latency average = 20.8553
	minimum = 7
	maximum = 40
Network latency average = 20.8553
	minimum = 7
	maximum = 40
Slowest packet = 4003
Flit latency average = 20.9742
	minimum = 7
	maximum = 40
Slowest flit = 4003
Fragmentation average = 0
	minimum = 0
	maximum = 0
Injected packet rate average = 0.00975
	minimum = 0.003 (at node 5)
	maximum = 0.016 (at node 12)
Accepted packet rate average = 0.0096875
	minimum = 0.003 (at node 5)
	maximum = 0.015 (at node 3)
Injected flit rate average = 0.00975
	minimum = 0.003 (at node 5)
	maximum = 0.016 (at node 12)
Accepted flit rate average= 0.0096875
	minimum = 0.003 (at node 5)
	maximum = 0.015 (at node 3)
Injected packet length average = 1
Accepted packet length average = 1
Total in-flight flits = 4 (4 measured)
latency change    = 0.050973
throughput change = 0.0322581
Class 0:
Packet latency average = 20.5833
	minimum = 7
	maximum = 46
Network latency average = 20.5833
	minimum = 7
	maximum = 46
Slowest packet = 4117
Flit latency average = 20.6626
	minimum = 7
	maximum = 46
Slowest flit = 4117
Fragmentation average = 0
	minimum = 0
	maximum = 0
Injected packet rate average = 0.0102083
	minimum = 0.004 (at node 5)
	maximum = 0.0126667 (at node 13)
Accepted packet rate average = 0.010125
	minimum = 0.004 (at node 5)
	maximum = 0.0126667 (at node 7)
Injected flit rate average = 0.0102083
	minimum = 0.004 (at node 5)
	maximum = 0.0126667 (at node 13)
Accepted flit rate average= 0.010125
	minimum = 0.004 (at node 5)
	maximum = 0.0126667 (at node 7)
Injected packet length average = 1
Accepted packet length average = 1
Total in-flight flits = 5 (5 measured)
latency change    = 0.0132112
throughput change = 0.0432099
Class 0:
Packet latency average = 20.3028
	minimum = 7
	maximum = 46
Network latency average = 20.3028
	minimum = 7
	maximum = 46
Slowest packet = 4117
Flit latency average = 20.3636
	minimum = 7
	maximum = 46
Slowest flit = 4117
Fragmentation average = 0
	minimum = 0
	maximum = 0
Injected packet rate average = 0.0103125
	minimum = 0.0045 (at node 5)
	maximum = 0.013 (at node 15)
Accepted packet rate average = 0.0103125
	minimum = 0.0045 (at node 5)
	maximum = 0.013 (at node 12)
Injected flit rate average = 0.0103125
	minimum = 0.0045 (at node 5)
	maximum = 0.013 (at node 15)
Accepted flit rate average= 0.0103125
	minimum = 0.0045 (at node 5)
	maximum = 0.013 (at node 12)
Injected packet length average = 1
Accepted packet length average = 1
Total in-flight flits = 3 (3 measured)
latency change    = 0.0138199
throughput change = 0.0181818
Class 0:
Packet latency average = 20.1259
	minimum = 7
	maximum = 46
Network latency average = 20.1259
	minimum = 7
	maximum = 46
Slowest packet = 4117
Flit latency average = 20.1765
	minimum = 7
	maximum = 46
Slowest flit = 4117
Fragmentation average = 0
	minimum = 0
	maximum = 0
Injected packet rate average = 0.010125
	minimum = 0.0056 (at node 5)
	maximum = 0.0124 (at node 4)
Accepted packet rate average = 0.0102
	minimum = 0.0056 (at node 5)
	maximum = 0.0124 (at node 1)
Injected flit rate average = 0.010125
	minimum = 0.0056 (at node 5)
	maximum = 0.0124 (at node 4)
Accepted flit rate average= 0.0102
	minimum = 0.0056 (at node 5)
	maximum = 0.0124 (at node 1)
Injected packet length average = 1
Accepted packet length average = 1
Total in-flight flits = 0 (0 measured)
latency change    = 0.008786
throughput change = 0.0110294
Draining all recorded packets ...
Draining remaining packets ...
Time taken is 4004 cycles
Class 0:
Packet latency average = 19.4516
	minimum = 7
	maximum = 40
Network latency average = 19.4516
	minimum = 7
	maximum = 40
Slowest packet = 4411
Flit latency average = 19.4516
	minimum = 7
	maximum = 40
Slowest flit = 4411
Fragmentation average = 0
	minimum = 0
	maximum = 0
Injected packet rate average = 0.012
	minimum = 0.004 (at node 14)
	maximum = 0.026 (at node 9)
Accepted packet rate average = 0.011625
	minimum = 0.004 (at node 11)
	maximum = 0.026 (at node 6)
Injected flit rate average = 0.012
	minimum = 0.004 (at node 14)
	maximum = 0.026 (at node 9)
Accepted flit rate average= 0.011625
	minimum = 0.004 (at node 11)
	maximum = 0.026 (at node 6)
Injected packet length average = 1
Accepted packet length average = 1
Total in-flight flits = 3 (0 measured)
latency change    = 1
throughput change = 1
Class 0:
Packet latency average = 19.6348
	minimum = 7
	maximum = 40
Network latency average = 19.6348
	minimum = 7
	maximum = 40
Slowest packet = 4411
Flit latency average = 19.6348
	minimum = 7
	maximum = 40
Slowest flit = 4411
Fragmentation average = 0
	minimum = 0
	maximum = 0
Injected packet rate average = 0.01125
	minimum = 0.005 (at node 7)
	maximum = 0.016 (at node 3)
Accepted packet rate average = 0.011125
	minimum = 0.005 (at node 13)
	maximum = 0.016 (at node 12)
Injected flit rate average = 0.01125
	minimum = 0.005 (at node 7)
	maximum = 0.016 (at node 3)
Accepted flit rate average= 0.011125
	minimum = 0.005 (at node 13)
	maximum = 0.016 (at node 12)
Injected packet length average = 1
Accepted packet length average = 1
Total in-flight flits = 2 (0 measured)
latency change    = 0.0093313
throughput change = 0.0449438
Class 0:
Packet latency average = 18.2737
	minimum = 7
	maximum = 37
Network latency average = 18.2737
	minimum = 7
	maximum = 37
Slowest packet = 4540
Flit latency average = 18.2737
	minimum = 7
	maximum = 37
Slowest flit = 4540
Fragmentation average = 0
	minimum = 0
	maximum = 0
Injected packet rate average = 0.012
	minimum = 0.004 (at node 5)
	maximum = 0.022 (at node 15)
Accepted packet rate average = 0.011875
	minimum = 0.002 (at node 5)
	maximum = 0.022 (at node 15)
Injected flit rate average = 0.012
	minimum = 0.004 (at node 5)
	maximum = 0.022 (at node 15)
Accepted flit rate average= 0.011875
	minimum = 0.002 (at node 5)
	maximum = 0.022 (at node 15)
Injected packet length average = 1
Accepted packet length average = 1
Total in-flight flits = 3 (0 measured)
latency change    = 0.0744867
throughput change = 0.0631579
Warmed up ...Time used is 1500 cycles
Class 0:
Packet latency average = 19.0435
	minimum = 7
	maximum = 45
Network latency average = 19.0435
	minimum = 7
	maximum = 45
Slowest packet = 4693
Flit latency average = 19.0972
	minimum = 7
	maximum = 45
Slowest flit = 4693
Fragmentation average = 0
	minimum = 0
	maximum = 0
Injected packet rate average = 0.009125
	minimum = 0.004 (at node 1)
	maximum = 0.018 (at node 11)
Accepted packet rate average = 0.009
	minimum = 0.004 (at node 3)
	maximum = 0.014 (at node 11)
Injected flit rate average = 0.009125
	minimum = 0.004 (at node 1)
	maximum = 0.018 (at node 11)
Accepted flit rate average= 0.009
	minimum = 0.004 (at node 3)
	maximum = 0.014 (at node 11)
Injected packet length average = 1
Accepted packet length average = 1
Total in-flight flits = 4 (4 measured)
latency change    = 0.040423
throughput change = 0.319444
Class 0:
Packet latency average = 19.9869
	minimum = 7
	maximum = 45
Network latency average = 19.9869
	minimum = 7
	maximum = 45
Slowest packet = 4693
Flit latency average = 19.9936
	minimum = 7
	maximum = 45
Slowest flit = 4693
Fragmentation average = 0
	minimum = 0
	maximum = 0
Injected packet rate average = 0.0096875
	minimum = 0.002 (at node 13)
	maximum = 0.015 (at node 4)
Accepted packet rate average = 0.00975
	minimum = 0.003 (at node 7)
	maximum = 0.015 (at node 1)
Injected flit rate average = 0.0096875
	minimum = 0.002 (at node 13)
	maximum = 0.015 (at node 4)
Accepted flit rate average= 0.00975
	minimum = 0.003 (at node 7)
	maximum = 0.015 (at node 1)
Injected packet length average = 1
Accepted packet length average = 1
Total in-flight flits = 2 (2 measured)
latency change    = 0.0472033
throughput change = 0.0769231
Class 0:
Packet latency average = 19.7532
	minimum = 7
	maximum = 45
Network latency average = 19.7532
	minimum = 7
	maximum = 45
Slowest packet = 4693
Flit latency average = 19.7605
	minimum = 7
	maximum = 45
Slowest flit = 4693
Fragmentation average = 0
	minimum = 0
	maximum = 0
Injected packet rate average = 0.01
	minimum = 0.00333333 (at node 13)
	maximum = 0.0146667 (at node 4)
Accepted packet rate average = 0.00991667
	minimum = 0.004 (at node 7)
	maximum = 0.0146667 (at node 1)
Injected flit rate average = 0.01
	minimum = 0.00333333 (at node 13)
	maximum = 0.0146667 (at node 4)
Accepted flit rate average= 0.00991667
	minimum = 0.004 (at node 7)
	maximum = 0.0146667 (at node 1)
Injected packet length average = 1
Accepted packet length average = 1
Total in-flight flits = 5 (5 measured)
latency change    = 0.0118329
throughput change = 0.0168067
Class 0:
Packet latency average = 19.7781
	minimum = 7
	maximum = 45
Network latency average = 19.7781
	minimum = 7
	maximum = 45
Slowest packet = 4693
Flit latency average = 19.7834
	minimum = 7
	maximum = 45
Slowest flit = 4693
Fragmentation average = 0
	minimum = 0
	maximum = 0
Injected packet rate average = 0.00975
	minimum = 0.005 (at node 13)
	maximum = 0.0125 (at node 4)
Accepted packet rate average = 0.0098125
	minimum = 0.0055 (at node 7)
	maximum = 0.0125 (at node 1)
Injected flit rate average = 0.00975
	minimum = 0.005 (at node 13)
	maximum = 0.0125 (at node 4)
Accepted flit rate average= 0.0098125
	minimum = 0.0055 (at node 7)
	maximum = 0.0125 (at node 1)
Injected packet length average = 1
Accepted packet length average = 1
Total in-flight flits = 1 (1 measured)
latency change    = 0.00126117
throughput change = 0.0106157
Class 0:
Packet latency average = 19.6881
	minimum = 7
	maximum = 45
Network latency average = 19.6881
	minimum = 7
	maximum = 45
Slowest packet = 4693
Flit latency average = 19.6929
	minimum = 7
	maximum = 45
Slowest flit = 4693
Fragmentation average = 0
	minimum = 0
	maximum = 0
Injected packet rate average = 0.010125
	minimum = 0.0052 (at node 13)
	maximum = 0.0132 (at node 14)
Accepted packet rate average = 0.010175
	minimum = 0.0056 (at node 7)
	maximum = 0.0132 (at node 11)
Injected flit rate average = 0.010125
	minimum = 0.0052 (at node 13)
	maximum = 0.0132 (at node 14)
Accepted flit rate average= 0.010175
	minimum = 0.0056 (at node 7)
	maximum = 0.0132 (at node 11)
Injected packet length average = 1
Accepted packet length average = 1
Total in-flight flits = 1 (1 measured)
latency change    = 0.00457211
throughput change = 0.0356265
Draining all recorded packets ...
Draining remaining packets ...
Time taken is 4024 cycles
Class 0:
Packet latency average = 17
	minimum = 7
	maximum = 37
Network latency average = 17
	minimum = 7
	maximum = 37
Slowest packet = 5039
Flit latency average = 17
	minimum = 7
	maximum = 37
Slowest flit = 5039
Fragmentation average = 0
	minimum = 0
	maximum = 0
Injected packet rate average = 0.00725
	minimum = 0 (at node 7)
	maximum = 0.014 (at node 4)
Accepted packet rate average = 0.007
	minimum = 0 (at node 13)
	maximum = 0.014 (at node 1)
Injected flit rate average = 0.00725
	minimum = 0 (at node 7)
	maximum = 0.014 (at node 4)
Accepted flit rate average= 0.007
	minimum = 0 (at node 13)
	maximum = 0.014 (at node 1)
Injected packet length average = 1
Accepted packet length average = 1
Total in-flight flits = 2 (0 measured)
latency change    = 1
throughput change = 1
Class 0:
Packet latency average = 19.4514
	minimum = 7
	maximum = 38
Network latency average = 19.4514
	minimum = 7
	maximum = 38
Slowest packet = 5117
Flit latency average = 19.4514
	minimum = 7
	maximum = 38
Slowest flit = 5117
Fragmentation average = 0
	minimum = 0
	maximum = 0
Injected packet rate average = 0.0090625
	minimum = 0.002 (at node 0)
	maximum = 0.016 (at node 9)
Accepted packet rate average = 0.009
	minimum = 0.002 (at node 0)
	maximum = 0.016 (at node 6)
Injected flit rate average = 0.0090625
	minimum = 0.002 (at node 0)
	maximum = 0.016 (at node 9)
Accepted flit rate average= 0.009
	minimum = 0.002 (at node 0)
	maximum = 0.016 (at node 6)
Injected packet length average = 1
Accepted packet length average = 1
Total in-flight flits = 1 (0 measured)
latency change    = 0.126026
throughput change = 0.222222
Class 0:
Packet latency average = 20.1111
	minimum = 7
	maximum = 37
Network latency average = 20.1111
	minimum = 7
	maximum = 37
Slowest packet = 5191
Flit latency average = 20.1111
	minimum = 7
	maximum = 37
Slowest flit = 5191
Fragmentation average = 0
	minimum = 0
	maximum = 0
Injected packet rate average = 0.011625
	minimum = 0.006 (at node 0)
	maximum = 0.018 (at node 3)
Accepted packet rate average = 0.01125
	minimum = 0.006 (at node 0)
	maximum = 0.016 (at node 12)
Injected flit rate average = 0.011625
	minimum = 0.006 (at node 0)
	maximum = 0.018 (at node 3)
Accepted flit rate average= 0.01125
	minimum = 0.006 (at node 0)
	maximum = 0.016 (at node 12)
Injected packet length average = 1
Accepted packet length average = 1
Total in-flight flits = 4 (0 measured)
latency change    = 0.0328039
throughput change = 0.2
Warmed up ...Time used is 1500 cycles
Class 0:
Packet latency average = 19.5352
	minimum = 7
	maximum = 37
Network latency average = 19.5352
	minimum = 7
	maximum = 37
Slowest packet = 5288
Flit latency average = 19.9333
	minimum = 7
	maximum = 37
Slowest flit = 5275
Fragmentation average = 0
	minimum = 0
	maximum = 0
Injected packet rate average = 0.009375
	minimum = 0.002 (at node 0)
	maximum = 0.018 (at node 11)
Accepted packet rate average = 0.009375
	minimum = 0.002 (at node 0)
	maximum = 0.016 (at node 9)
Injected flit rate average = 0.009375
	minimum = 0.002 (at node 0)
	maximum = 0.018 (at node 11)
Accepted flit rate average= 0.009375
	minimum = 0.002 (at node 0)
	maximum = 0.016 (at node 9)
Injected packet length average = 1
Accepted packet length average = 1
Total in-flight flits = 4 (4 measured)
latency change    = 0.0294801
throughput change = 0.2
Class 0:
Packet latency average = 19.4444
	minimum = 7
	maximum = 41
Network latency average = 19.4444
	minimum = 7
	maximum = 41
Slowest packet = 5402
Flit latency average = 19.6369
	minimum = 7
	maximum = 41
Slowest flit = 5402
Fragmentation average = 0
	minimum = 0
	maximum = 0
Injected packet rate average = 0.0095625
	minimum = 0.006 (at node 0)
	maximum = 0.016 (at node 11)
Accepted packet rate average = 0.0098125
	minimum = 0.006 (at node 0)
	maximum = 0.016 (at node 14)
Injected flit rate average = 0.0095625
	minimum = 0.006 (at node 0)
	maximum = 0.016 (at node 11)
Accepted flit rate average= 0.0098125
	minimum = 0.006 (at node 0)
	maximum = 0.016 (at node 14)
Injected packet length average = 1
Accepted packet length average = 1
Total in-flight flits = 0 (0 measured)
latency change    = 0.00466801
throughput change = 0.044586
Class 0:
Packet latency average = 19.4211
	minimum = 7
	maximum = 41
Network latency average = 19.4211
	minimum = 7
	maximum = 41
Slowest packet = 5402
Flit latency average = 19.5517
	minimum = 7
	maximum = 41
Slowest flit = 5402
Fragmentation average = 0
	minimum = 0
	maximum = 0
Injected packet rate average = 0.00966667
	minimum = 0.006 (at node 14)
	maximum = 0.018 (at node 11)
Accepted packet rate average = 0.00966667
	minimum = 0.006 (at node 11)
	maximum = 0.0173333 (at node 14)
Injected flit rate average = 0.00966667
	minimum = 0.006 (at node 14)
	maximum = 0.018 (at node 11)
Accepted flit rate average= 0.00966667
	minimum = 0.006 (at node 11)
	maximum = 0.0173333 (at node 14)
Injected packet length average = 1
Accepted packet length average = 1
Total in-flight flits = 4 (4 measured)
latency change    = 0.00120446
throughput change = 0.0150862
Class 0:
Packet latency average = 19.7282
	minimum = 7
	maximum = 41
Network latency average = 19.7282
	minimum = 7
	maximum = 41
Slowest packet = 5402
Flit latency average = 19.8245
	minimum = 7
	maximum = 41
Slowest flit = 5402
Fragmentation average = 0
	minimum = 0
	maximum = 0
Injected packet rate average = 0.00940625
	minimum = 0.0065 (at node 12)
	maximum = 0.0165 (at node 11)
Accepted packet rate average = 0.0094375
	minimum = 0.0065 (at node 3)
	maximum = 0.0165 (at node 14)
Injected flit rate average = 0.00940625
	minimum = 0.0065 (at node 12)
	maximum = 0.0165 (at node 11)
Accepted flit rate average= 0.0094375
	minimum = 0.0065 (at node 3)
	maximum = 0.0165 (at node 14)
Injected packet length average = 1
Accepted packet length average = 1
Total in-flight flits = 3 (3 measured)
latency change    = 0.0155683
throughput change = 0.0242826
Draining all recorded packets ...
Draining remaining packets ...
Time taken is 3552 cycles
Class 0:
Packet latency average = 18.4935
	minimum = 7
	maximum = 42
Network latency average = 18.4935
	minimum = 7
	maximum = 42
Slowest packet = 5589
Flit latency average = 18.4935
	minimum = 7
	maximum = 42
Slowest flit = 5589
Fragmentation average = 0
	minimum = 0
	maximum = 0
Injected packet rate average = 0.010375
	minimum = 0.002 (at node 3)
	maximum = 0.02 (at node 7)
Accepted packet rate average = 0.009625
	minimum = 0.002 (at node 12)
	maximum = 0.016 (at node 13)
Injected flit rate average = 0.010375
	minimum = 0.002 (at node 3)
	maximum = 0.02 (at node 7)
Accepted flit rate average= 0.009625
	minimum = 0.002 (at node 12)
	maximum = 0.016 (at node 13)
Injected packet length average = 1
Accepted packet length average = 1
Total in-flight flits = 6 (0 measured)
latency change    = 1
throughput change = 1
Class 0:
Packet latency average = 19.4379
	minimum = 7
	maximum = 44
Network latency average = 19.4379
	minimum = 7
	maximum = 44
Slowest packet = 5685
Flit latency average = 19.4379
	minimum = 7
	maximum = 44
Slowest flit = 5685
Fragmentation average = 0
	minimum = 0
	maximum = 0
Injected packet rate average = 0.009625
	minimum = 0.005 (at node 2)
	maximum = 0.016 (at node 7)
Accepted packet rate average = 0.0095625
	minimum = 0.005 (at node 8)
	maximum = 0.016 (at node 13)
Injected flit rate average = 0.009625
	minimum = 0.005 (at node 2)
	maximum = 0.016 (at node 7)
Accepted flit rate average= 0.0095625
	minimum = 0.005 (at node 8)
	maximum = 0.016 (at node 13)
Injected packet length average = 1
Accepted packet length average = 1
Total in-flight flits = 1 (0 measured)
latency change    = 0.0485856
throughput change = 0.00653595
Class 0:
Packet latency average = 20.1299
	minimum = 7
	maximum = 39
Network latency average = 20.1299
	minimum = 7
	maximum = 39
Slowest packet = 5773
Flit latency average = 20.1299
	minimum = 7
	maximum = 39
Slowest flit = 5773
Fragmentation average = 0
	minimum = 0
	maximum = 0
Injected packet rate average = 0.010125
	minimum = 0.006 (at node 9)
	maximum = 0.014 (at node 2)
Accepted packet rate average = 0.009625
	minimum = 0.004 (at node 6)
	maximum = 0.016 (at node 10)
Injected flit rate average = 0.010125
	minimum = 0.006 (at node 9)
	maximum = 0.014 (at node 2)
Accepted flit rate average= 0.009625
	minimum = 0.004 (at node 6)
	maximum = 0.016 (at node 10)
Injected packet length average = 1
Accepted packet length average = 1
Total in-flight flits = 5 (0 measured)
latency change    = 0.0343749
throughput change = 0.00649351
Warmed up ...Time used is 1500 cycles
Class 0:
Packet latency average = 18.4493
	minimum = 7
	maximum = 37
Network latency average = 18.4493
	minimum = 7
	maximum = 37
Slowest packet = 5819
Flit latency average = 18.6216
	minimum = 7
	maximum = 37
Slowest flit = 5819
Fragmentation average = 0
	minimum = 0
	maximum = 0
Injected packet rate average = 0.00875
	minimum = 0 (at node 6)
	maximum = 0.016 (at node 15)
Accepted packet rate average = 0.00925
	minimum = 0 (at node 9)
	maximum = 0.016 (at node 2)
Injected flit rate average = 0.00875
	minimum = 0 (at node 6)
	maximum = 0.016 (at node 15)
Accepted flit rate average= 0.00925
	minimum = 0 (at node 9)
	maximum = 0.016 (at node 2)
Injected packet length average = 1
Accepted packet length average = 1
Total in-flight flits = 1 (1 measured)
latency change    = 0.0910927
throughput change = 0.0405405
Class 0:
Packet latency average = 18.5972
	minimum = 7
	maximum = 37
Network latency average = 18.5972
	minimum = 7
	maximum = 37
Slowest packet = 5819
Flit latency average = 18.6779
	minimum = 7
	maximum = 37
Slowest flit = 5819
Fragmentation average = 0
	minimum = 0
	maximum = 0
Injected packet rate average = 0.0093125
	minimum = 0.002 (at node 6)
	maximum = 0.016 (at node 4)
Accepted packet rate average = 0.0093125
	minimum = 0.002 (at node 9)
	maximum = 0.016 (at node 1)
Injected flit rate average = 0.0093125
	minimum = 0.002 (at node 6)
	maximum = 0.016 (at node 4)
Accepted flit rate average= 0.0093125
	minimum = 0.002 (at node 9)
	maximum = 0.016 (at node 1)
Injected packet length average = 1
Accepted packet length average = 1
Total in-flight flits = 5 (5 measured)
latency change    = 0.00795532
throughput change = 0.00671141
Class 0:
Packet latency average = 18.7956
	minimum = 7
	maximum = 37
Network latency average = 18.7956
	minimum = 7
	maximum = 37
Slowest packet = 5819
Flit latency average = 18.8435
	minimum = 7
	maximum = 37
Slowest flit = 5819
Fragmentation average = 0
	minimum = 0
	maximum = 0
Injected packet rate average = 0.00945833
	minimum = 0.00333333 (at node 6)
	maximum = 0.0146667 (at node 7)
Accepted packet rate average = 0.00958333
	minimum = 0.00333333 (at node 9)
	maximum = 0.0146667 (at node 13)
Injected flit rate average = 0.00945833
	minimum = 0.00333333 (at node 6)
	maximum = 0.0146667 (at node 7)
Accepted flit rate average= 0.00958333
	minimum = 0.00333333 (at node 9)
	maximum = 0.0146667 (at node 13)
Injected packet length average = 1
Accepted packet length average = 1
Total in-flight flits = 2 (2 measured)
latency change    = 0.0105521
throughput change = 0.0282609
Class 0:
Packet latency average = 18.6852
	minimum = 7
	maximum = 37
Network latency average = 18.6852
	minimum = 7
	maximum = 37
Slowest packet = 5819
Flit latency average = 18.7226
	minimum = 7
	maximum = 37
Slowest flit = 5819
Fragmentation average = 0
	minimum = 0
	maximum = 0
Injected packet rate average = 0.00953125
	minimum = 0.0055 (at node 6)
	maximum = 0.0135 (at node 7)
Accepted packet rate average = 0.0096875
	minimum = 0.0055 (at node 9)
	maximum = 0.0135 (at node 13)
Injected flit rate average = 0.00953125
	minimum = 0.0055 (at node 6)
	maximum = 0.0135 (at node 7)
Accepted flit rate average= 0.0096875
	minimum = 0.0055 (at node 9)
	maximum = 0.0135 (at node 13)
Injected packet length average = 1
Accepted packet length average = 1
Total in-flight flits = 0 (0 measured)
latency change    = 0.00590357
throughput change = 0.0107527
Draining all recorded packets ...
Draining remaining packets ...
Time taken is 3502 cycles
Class 0:
Packet latency average = 19.1739
	minimum = 7
	maximum = 37
Network latency average = 19.1739
	minimum = 7
	maximum = 37
Slowest packet = 6124
Flit latency average = 19.1739
	minimum = 7
	maximum = 37
Slowest flit = 6124
Fragmentation average = 0
	minimum = 0
	maximum = 0
Injected packet rate average = 0.008625
	minimum = 0.004 (at node 1)
	maximum = 0.014 (at node 3)
Accepted packet rate average = 0.008625
	minimum = 0.004 (at node 3)
	maximum = 0.014 (at node 9)
Injected flit rate average = 0.008625
	minimum = 0.004 (at node 1)
	maximum = 0.014 (at node 3)
Accepted flit rate average= 0.008625
	minimum = 0.004 (at node 3)
	maximum = 0.014 (at node 9)
Injected packet length average = 1
Accepted packet length average = 1
Total in-flight flits = 0 (0 measured)
latency change    = 1
throughput change = 1
Class 0:
Packet latency average = 20.0444
	minimum = 7
	maximum = 38
Network latency average = 20.0444
	minimum = 7
	maximum = 38
Slowest packet = 6220
Flit latency average = 20.0444
	minimum = 7
	maximum = 38
Slowest flit = 6220
Fragmentation average = 0
	minimum = 0
	maximum = 0
Injected packet rate average = 0.0084375
	minimum = 0.004 (at node 15)
	maximum = 0.012 (at node 3)
Accepted packet rate average = 0.0084375
	minimum = 0.004 (at node 15)
	maximum = 0.012 (at node 12)
Injected flit rate average = 0.0084375
	minimum = 0.004 (at node 15)
	maximum = 0.012 (at node 3)
Accepted flit rate average= 0.0084375
	minimum = 0.004 (at node 15)
	maximum = 0.012 (at node 12)
Injected packet length average = 1
Accepted packet length average = 1
Total in-flight flits = 0 (0 measured)
latency change    = 0.0434301
throughput change = 0.0222222
Class 0:
Packet latency average = 19.7442
	minimum = 7
	maximum = 43
Network latency average = 19.7442
	minimum = 7
	maximum = 43
Slowest packet = 6271
Flit latency average = 19.7442
	minimum = 7
	maximum = 43
Slowest flit = 6271
Fragmentation average = 0
	minimum = 0
	maximum = 0
Injected packet rate average = 0.010875
	minimum = 0.004 (at node 4)
	maximum = 0.022 (at node 0)
Accepted packet rate average = 0.01075
	minimum = 0.004 (at node 1)
	maximum = 0.022 (at node 0)
Injected flit rate average = 0.010875
	minimum = 0.004 (at node 4)
	maximum = 0.022 (at node 0)
Accepted flit rate average= 0.01075
	minimum = 0.004 (at node 1)
	maximum = 0.022 (at node 0)
Injected packet length average = 1
Accepted packet length average = 1
Total in-flight flits = 1 (0 measured)
latency change    = 0.0152074
throughput change = 0.215116
Warmed up ...Time used is 1500 cycles
Class 0:
Packet latency average = 19.3684
	minimum = 7
	maximum = 37
Network latency average = 19.3684
	minimum = 7
	maximum = 37
Slowest packet = 6351
Flit latency average = 19.3377
	minimum = 7
	maximum = 37
Slowest flit = 6351
Fragmentation average = 0
	minimum = 0
	maximum = 0
Injected packet rate average = 0.01
	minimum = 0 (at node 13)
	maximum = 0.018 (at node 10)
Accepted packet rate average = 0.009625
	minimum = 0 (at node 7)
	maximum = 0.018 (at node 10)
Injected flit rate average = 0.01
	minimum = 0 (at node 13)
	maximum = 0.018 (at node 10)
Accepted flit rate average= 0.009625
	minimum = 0 (at node 7)
	maximum = 0.018 (at node 10)
Injected packet length average = 1
Accepted packet length average = 1
Total in-flight flits = 4 (4 measured)
latency change    = 0.0194009
throughput change = 0.116883
Class 0:
Packet latency average = 19.6831
	minimum = 7
	maximum = 37
Network latency average = 19.6831
	minimum = 7
	maximum = 37
Slowest packet = 6351
Flit latency average = 19.6643
	minimum = 7
	maximum = 37
Slowest flit = 6351
Fragmentation average = 0
	minimum = 0
	maximum = 0
Injected packet rate average = 0.009125
	minimum = 0.007 (at node 2)
	maximum = 0.013 (at node 12)
Accepted packet rate average = 0.0089375
	minimum = 0.006 (at node 7)
	maximum = 0.012 (at node 3)
Injected flit rate average = 0.009125
	minimum = 0.007 (at node 2)
	maximum = 0.013 (at node 12)
Accepted flit rate average= 0.0089375
	minimum = 0.006 (at node 7)
	maximum = 0.012 (at node 3)
Injected packet length average = 1
Accepted packet length average = 1
Total in-flight flits = 4 (4 measured)
latency change    = 0.0159872
throughput change = 0.0769231
Class 0:
Packet latency average = 19.8646
	minimum = 7
	maximum = 37
Network latency average = 19.8646
	minimum = 7
	maximum = 37
Slowest packet = 6351
Flit latency average = 19.8522
	minimum = 7
	maximum = 37
Slowest flit = 6351
Fragmentation average = 0
	minimum = 0
	maximum = 0
Injected packet rate average = 0.00954167
	minimum = 0.00733333 (at node 5)
	maximum = 0.0126667 (at node 10)
Accepted packet rate average = 0.00958333
	minimum = 0.00733333 (at node 5)
	maximum = 0.0126667 (at node 10)
Injected flit rate average = 0.00954167
	minimum = 0.00733333 (at node 5)
	maximum = 0.0126667 (at node 10)
Accepted flit rate average= 0.00958333
	minimum = 0.00733333 (at node 5)
	maximum = 0.0126667 (at node 10)
Injected packet length average = 1
Accepted packet length average = 1
Total in-flight flits = 0 (0 measured)
latency change    = 0.00913837
throughput change = 0.0673913
Class 0:
Packet latency average = 19.6288
	minimum = 7
	maximum = 37
Network latency average = 19.6288
	minimum = 7
	maximum = 37
Slowest packet = 6351
Flit latency average = 19.62
	minimum = 7
	maximum = 37
Slowest flit = 6351
Fragmentation average = 0
	minimum = 0
	maximum = 0
Injected packet rate average = 0.00934375
	minimum = 0.0065 (at node 5)
	maximum = 0.012 (at node 8)
Accepted packet rate average = 0.009375
	minimum = 0.0065 (at node 5)
	maximum = 0.012 (at node 2)
Injected flit rate average = 0.00934375
	minimum = 0.0065 (at node 5)
	maximum = 0.012 (at node 8)
Accepted flit rate average= 0.009375
	minimum = 0.0065 (at node 5)
	maximum = 0.012 (at node 2)
Injected packet length average = 1
Accepted packet length average = 1
Total in-flight flits = 0 (0 measured)
latency change    = 0.0120164
throughput change = 0.0222222
Class 0:
Packet latency average = 19.4896
	minimum = 7
	maximum = 37
Network latency average = 19.4896
	minimum = 7
	maximum = 37
Slowest packet = 6351
Flit latency average = 19.4831
	minimum = 7
	maximum = 37
Slowest flit = 6351
Fragmentation average = 0
	minimum = 0
	maximum = 0
Injected packet rate average = 0.0097
	minimum = 0.0068 (at node 13)
	maximum = 0.0124 (at node 10)
Accepted packet rate average = 0.009625
	minimum = 0.0064 (at node 7)
	maximum = 0.012 (at node 10)
Injected flit rate average = 0.0097
	minimum = 0.0068 (at node 13)
	maximum = 0.0124 (at node 10)
Accepted flit rate average= 0.009625
	minimum = 0.0064 (at node 7)
	maximum = 0.012 (at node 10)
Injected packet length average = 1
Accepted packet length average = 1
Total in-flight flits = 4 (4 measured)
latency change    = 0.00714121
throughput change = 0.025974
Class 0:
Packet latency average = 19.4478
	minimum = 7
	maximum = 37
Network latency average = 19.4478
	minimum = 7
	maximum = 37
Slowest packet = 6351
Flit latency average = 19.4425
	minimum = 7
	maximum = 37
Slowest flit = 6351
Fragmentation average = 0
	minimum = 0
	maximum = 0
Injected packet rate average = 0.009625
	minimum = 0.007 (at node 13)
	maximum = 0.0123333 (at node 8)
Accepted packet rate average = 0.00960417
	minimum = 0.007 (at node 7)
	maximum = 0.0123333 (at node 10)
Injected flit rate average = 0.009625
	minimum = 0.007 (at node 13)
	maximum = 0.0123333 (at node 8)
Accepted flit rate average= 0.00960417
	minimum = 0.007 (at node 7)
	maximum = 0.0123333 (at node 10)
Injected packet length average = 1
Accepted packet length average = 1
Total in-flight flits = 2 (2 measured)
latency change    = 0.00214714
throughput change = 0.0021692
Draining all recorded packets ...
Draining remaining packets ...
Time taken is 4543 cycles
Class 0:
Packet latency average = 17.3607
	minimum = 7
	maximum = 38
Network latency average = 17.3607
	minimum = 7
	maximum = 38
Slowest packet = 6819
Flit latency average = 17.3607
	minimum = 7
	maximum = 38
Slowest flit = 6819
Fragmentation average = 0
	minimum = 0
	maximum = 0
Injected packet rate average = 0.008125
	minimum = 0.002 (at node 15)
	maximum = 0.018 (at node 5)
Accepted packet rate average = 0.007625
	minimum = 0.002 (at node 3)
	maximum = 0.018 (at node 5)
Injected flit rate average = 0.008125
	minimum = 0.002 (at node 15)
	maximum = 0.018 (at node 5)
Accepted flit rate average= 0.007625
	minimum = 0.002 (at node 3)
	maximum = 0.018 (at node 5)
Injected packet length average = 1
Accepted packet length average = 1
Total in-flight flits = 4 (0 measured)
latency change    = 1
throughput change = 1
Class 0:
Packet latency average = 18.9333
	minimum = 7
	maximum = 38
Network latency average = 18.9333
	minimum = 7
	maximum = 38
Slowest packet = 6819
Flit latency average = 18.9333
	minimum = 7
	maximum = 38
Slowest flit = 6819
Fragmentation average = 0
	minimum = 0
	maximum = 0
Injected packet rate average = 0.009625
	minimum = 0.005 (at node 9)
	maximum = 0.017 (at node 5)
Accepted packet rate average = 0.009375
	minimum = 0.005 (at node 6)
	maximum = 0.017 (at node 5)
Injected flit rate average = 0.009625
	minimum = 0.005 (at node 9)
	maximum = 0.017 (at node 5)
Accepted flit rate average= 0.009375
	minimum = 0.005 (at node 6)
	maximum = 0.017 (at node 5)
Injected packet length average = 1
Accepted packet length average = 1
Total in-flight flits = 4 (0 measured)
latency change    = 0.083064
throughput change = 0.186667
Class 0:
Packet latency average = 19.9036
	minimum = 7
	maximum = 38
Network latency average = 19.9036
	minimum = 7
	maximum = 38
Slowest packet = 7025
Flit latency average = 19.9036
	minimum = 7
	maximum = 38
Slowest flit = 7025
Fragmentation average = 0
	minimum = 0
	maximum = 0
Injected packet rate average = 0.010625
	minimum = 0.004 (at node 0)
	maximum = 0.02 (at node 4)
Accepted packet rate average = 0.010375
	minimum = 0.004 (at node 0)
	maximum = 0.02 (at node 1)
Injected flit rate average = 0.010625
	minimum = 0.004 (at node 0)
	maximum = 0.02 (at node 4)
Accepted flit rate average= 0.010375
	minimum = 0.004 (at node 0)
	maximum = 0.02 (at node 1)
Injected packet length average = 1
Accepted packet length average = 1
Total in-flight flits = 6 (0 measured)
latency change    = 0.048749
throughput change = 0.0963855
Warmed up ...Time used is 1500 cycles
Class 0:
Packet latency average = 19.3485
	minimum = 7
	maximum = 37
Network latency average = 19.3485
	minimum = 7
	maximum = 37
Slowest packet = 7058
Flit latency average = 19.9167
	minimum = 7
	maximum = 41
Slowest flit = 7049
Fragmentation average = 0
	minimum = 0
	maximum = 0
Injected packet rate average = 0.008625
	minimum = 0.002 (at node 2)
	maximum = 0.014 (at node 8)
Accepted packet rate average = 0.009
	minimum = 0.002 (at node 8)
	maximum = 0.014 (at node 3)
Injected flit rate average = 0.008625
	minimum = 0.002 (at node 2)
	maximum = 0.014 (at node 8)
Accepted flit rate average= 0.009
	minimum = 0.002 (at node 8)
	maximum = 0.014 (at node 3)
Injected packet length average = 1
Accepted packet length average = 1
Total in-flight flits = 3 (3 measured)
latency change    = 0.0286911
throughput change = 0.152778
Class 0:
Packet latency average = 18.729
	minimum = 7
	maximum = 38
Network latency average = 18.729
	minimum = 7
	maximum = 38
Slowest packet = 7154
Flit latency average = 19.0062
	minimum = 7
	maximum = 41
Slowest flit = 7049
Fragmentation average = 0
	minimum = 0
	maximum = 0
Injected packet rate average = 0.0098125
	minimum = 0.006 (at node 4)
	maximum = 0.014 (at node 1)
Accepted packet rate average = 0.0100625
	minimum = 0.007 (at node 1)
	maximum = 0.014 (at node 4)
Injected flit rate average = 0.0098125
	minimum = 0.006 (at node 4)
	maximum = 0.014 (at node 1)
Accepted flit rate average= 0.0100625
	minimum = 0.007 (at node 1)
	maximum = 0.014 (at node 4)
Injected packet length average = 1
Accepted packet length average = 1
Total in-flight flits = 2 (2 measured)
latency change    = 0.0330745
throughput change = 0.10559
Class 0:
Packet latency average = 19.0506
	minimum = 7
	maximum = 38
Network latency average = 19.0506
	minimum = 7
	maximum = 38
Slowest packet = 7154
Flit latency average = 19.2263
	minimum = 7
	maximum = 41
Slowest flit = 7049
Fragmentation average = 0
	minimum = 0
	maximum = 0
Injected packet rate average = 0.00991667
	minimum = 0.006 (at node 12)
	maximum = 0.0146667 (at node 1)
Accepted packet rate average = 0.010125
	minimum = 0.00733333 (at node 3)
	maximum = 0.0146667 (at node 4)
Injected flit rate average = 0.00991667
	minimum = 0.006 (at node 12)
	maximum = 0.0146667 (at node 1)
Accepted flit rate average= 0.010125
	minimum = 0.00733333 (at node 3)
	maximum = 0.0146667 (at node 4)
Injected packet length average = 1
Accepted packet length average = 1
Total in-flight flits = 1 (1 measured)
latency change    = 0.0168814
throughput change = 0.00617284
Class 0:
Packet latency average = 19.461
	minimum = 7
	maximum = 38
Network latency average = 19.461
	minimum = 7
	maximum = 38
Slowest packet = 7154
Flit latency average = 19.5892
	minimum = 7
	maximum = 41
Slowest flit = 7049
Fragmentation average = 0
	minimum = 0
	maximum = 0
Injected packet rate average = 0.009625
	minimum = 0.007 (at node 6)
	maximum = 0.014 (at node 1)
Accepted packet rate average = 0.0098125
	minimum = 0.007 (at node 9)
	maximum = 0.014 (at node 4)
Injected flit rate average = 0.009625
	minimum = 0.007 (at node 6)
	maximum = 0.014 (at node 1)
Accepted flit rate average= 0.0098125
	minimum = 0.007 (at node 9)
	maximum = 0.014 (at node 4)
Injected packet length average = 1
Accepted packet length average = 1
Total in-flight flits = 0 (0 measured)
latency change    = 0.0210886
throughput change = 0.0318471
Class 0:
Packet latency average = 19.5373
	minimum = 7
	maximum = 38
Network latency average = 19.5373
	minimum = 7
	maximum = 38
Slowest packet = 7154
Flit latency average = 19.6348
	minimum = 7
	maximum = 41
Slowest flit = 7049
Fragmentation average = 0
	minimum = 0
	maximum = 0
Injected packet rate average = 0.010125
	minimum = 0.0076 (at node 10)
	maximum = 0.014 (at node 1)
Accepted packet rate average = 0.0102
	minimum = 0.008 (at node 8)
	maximum = 0.014 (at node 4)
Injected flit rate average = 0.010125
	minimum = 0.0076 (at node 10)
	maximum = 0.014 (at node 1)
Accepted flit rate average= 0.0102
[...]
Class 0:
Packet latency average = 17.7079
	minimum = 7
	maximum = 40
Network latency average = 17.7079
	minimum = 7
	maximum = 40
Slowest packet = 31427
Flit latency average = 17.6923
	minimum = 7
	maximum = 40
Slowest flit = 31427
Fragmentation average = 0
	minimum = 0
	maximum = 0
Injected packet rate average = 0.01125
	minimum = 0.004 (at node 2)
	maximum = 0.02 (at node 6)
Accepted packet rate average = 0.011375
	minimum = 0.004 (at node 12)
	maximum = 0.02 (at node 9)
Injected flit rate average = 0.01125
	minimum = 0.004 (at node 2)
	maximum = 0.02 (at node 6)
Accepted flit rate average= 0.011375
	minimum = 0.004 (at node 12)
	maximum = 0.02 (at node 9)
Injected packet length average = 1
Accepted packet length average = 1
Total in-flight flits = 1 (1 measured)
latency change    = 0.048263
throughput change = 0.296703
Class 0:
Packet latency average = 18.7048
	minimum = 7
	maximum = 40
Network latency average = 18.7048
	minimum = 7
	maximum = 40
Slowest packet = 31427
Flit latency average = 18.6845
	minimum = 7
	maximum = 40
Slowest flit = 31427
Fragmentation average = 0
	minimum = 0
	maximum = 0
Injected packet rate average = 0.0105
	minimum = 0.006 (at node 2)
	maximum = 0.015 (at node 6)
Accepted packet rate average = 0.0105
	minimum = 0.006 (at node 2)
	maximum = 0.015 (at node 9)
Injected flit rate average = 0.0105
	minimum = 0.006 (at node 2)
	maximum = 0.015 (at node 6)
Accepted flit rate average= 0.0105
	minimum = 0.006 (at node 2)
	maximum = 0.015 (at node 9)
Injected packet length average = 1
Accepted packet length average = 1
Total in-flight flits = 2 (2 measured)
latency change    = 0.0532993
throughput change = 0.0833333
Class 0:
Packet latency average = 19.1286
	minimum = 7
	maximum = 40
Network latency average = 19.1286
	minimum = 7
	maximum = 40
Slowest packet = 31427
Flit latency average = 19.1111
	minimum = 7
	maximum = 40
Slowest flit = 31427
Fragmentation average = 0
	minimum = 0
	maximum = 0
Injected packet rate average = 0.0102083
	minimum = 0.00733333 (at node 13)
	maximum = 0.014 (at node 6)
Accepted packet rate average = 0.010125
	minimum = 0.00733333 (at node 7)
	maximum = 0.014 (at node 9)
Injected flit rate average = 0.0102083
	minimum = 0.00733333 (at node 13)
	maximum = 0.014 (at node 6)
Accepted flit rate average= 0.010125
	minimum = 0.00733333 (at node 7)
	maximum = 0.014 (at node 9)
Injected packet length average = 1
Accepted packet length average = 1
Total in-flight flits = 4 (4 measured)
latency change    = 0.0221559
throughput change = 0.037037
Class 0:
Packet latency average = 18.6409
	minimum = 7
	maximum = 40
Network latency average = 18.6409
	minimum = 7
	maximum = 40
Slowest packet = 31427
Flit latency average = 18.6313
	minimum = 7
	maximum = 40
Slowest flit = 31427
Fragmentation average = 0
	minimum = 0
	maximum = 0
Injected packet rate average = 0.0105938
	minimum = 0.0065 (at node 8)
	maximum = 0.0135 (at node 11)
Accepted packet rate average = 0.0105938
	minimum = 0.0065 (at node 2)
	maximum = 0.0135 (at node 14)
Injected flit rate average = 0.0105938
	minimum = 0.0065 (at node 8)
	maximum = 0.0135 (at node 11)
Accepted flit rate average= 0.0105938
	minimum = 0.0065 (at node 2)
	maximum = 0.0135 (at node 14)
Injected packet length average = 1
Accepted packet length average = 1
Total in-flight flits = 2 (2 measured)
latency change    = 0.0261618
throughput change = 0.0442478
Class 0:
Packet latency average = 19.0295
	minimum = 7
	maximum = 43
Network latency average = 19.0295
	minimum = 7
	maximum = 43
Slowest packet = 31738
Flit latency average = 19.0196
	minimum = 7
	maximum = 43
Slowest flit = 31738
Fragmentation average = 0
	minimum = 0
	maximum = 0
Injected packet rate average = 0.010225
	minimum = 0.0064 (at node 8)
	maximum = 0.0124 (at node 0)
Accepted packet rate average = 0.010225
	minimum = 0.0064 (at node 2)
	maximum = 0.0124 (at node 0)
Injected flit rate average = 0.010225
	minimum = 0.0064 (at node 8)
	maximum = 0.0124 (at node 0)
Accepted flit rate average= 0.010225
	minimum = 0.0064 (at node 2)
	maximum = 0.0124 (at node 0)
Injected packet length average = 1
Accepted packet length average = 1
Total in-flight flits = 2 (2 measured)
latency change    = 0.0204175
throughput change = 0.0360636
Draining all recorded packets ...
Draining remaining packets ...
Time taken is 4023 cycles
Class 0:
Packet latency average = 19.2987
	minimum = 7
	maximum = 37
Network latency average = 19.2987
	minimum = 7
	maximum = 37
Slowest packet = 31791
Flit latency average = 19.2987
	minimum = 7
	maximum = 37
Slowest flit = 31791
Fragmentation average = 0
	minimum = 0
	maximum = 0
Injected packet rate average = 0.01
	minimum = 0.002 (at node 14)
	maximum = 0.016 (at node 1)
Accepted packet rate average = 0.009625
	minimum = 0.002 (at node 11)
	maximum = 0.016 (at node 4)
Injected flit rate average = 0.01
	minimum = 0.002 (at node 14)
	maximum = 0.016 (at node 1)
Accepted flit rate average= 0.009625
	minimum = 0.002 (at node 11)
	maximum = 0.016 (at node 4)
Injected packet length average = 1
Accepted packet length average = 1
Total in-flight flits = 3 (0 measured)
latency change    = 1
throughput change = 1
Class 0:
Packet latency average = 20.0833
	minimum = 7
	maximum = 37
Network latency average = 20.0833
	minimum = 7
	maximum = 37
Slowest packet = 31791
Flit latency average = 20.0833
	minimum = 7
	maximum = 37
Slowest flit = 31791
Fragmentation average = 0
	minimum = 0
	maximum = 0
Injected packet rate average = 0.009125
	minimum = 0.004 (at node 12)
	maximum = 0.015 (at node 2)
Accepted packet rate average = 0.009
	minimum = 0.004 (at node 3)
	maximum = 0.014 (at node 8)
Injected flit rate average = 0.009125
	minimum = 0.004 (at node 12)
	maximum = 0.015 (at node 2)
Accepted flit rate average= 0.009
	minimum = 0.004 (at node 3)
	maximum = 0.014 (at node 8)
Injected packet length average = 1
Accepted packet length average = 1
Total in-flight flits = 2 (0 measured)
latency change    = 0.0390688
throughput change = 0.0694444
Class 0:
Packet latency average = 20.0263
	minimum = 7
	maximum = 37
Network latency average = 20.0263
	minimum = 7
	maximum = 37
Slowest packet = 31915
Flit latency average = 20.0263
	minimum = 7
	maximum = 37
Slowest flit = 31915
Fragmentation average = 0
	minimum = 0
	maximum = 0
Injected packet rate average = 0.00975
	minimum = 0.002 (at node 10)
	maximum = 0.016 (at node 13)
Accepted packet rate average = 0.0095
	minimum = 0.004 (at node 10)
	maximum = 0.016 (at node 7)
Injected flit rate average = 0.00975
	minimum = 0.002 (at node 10)
	maximum = 0.016 (at node 13)
Accepted flit rate average= 0.0095
	minimum = 0.004 (at node 10)
	maximum = 0.016 (at node 7)
Injected packet length average = 1
Accepted packet length average = 1
Total in-flight flits = 4 (0 measured)
latency change    = 0.00284713
throughput change = 0.0526316
Warmed up ...Time used is 1500 cycles
Class 0:
Packet latency average = 20.75
	minimum = 7
	maximum = 44
Network latency average = 20.75
	minimum = 7
	maximum = 44
Slowest packet = 32061
Flit latency average = 21.3125
	minimum = 7
	maximum = 44
Slowest flit = 32061
Fragmentation average = 0
	minimum = 0
	maximum = 0
Injected packet rate average = 0.01
	minimum = 0.004 (at node 1)
	maximum = 0.018 (at node 6)
Accepted packet rate average = 0.01
	minimum = 0.004 (at node 4)
	maximum = 0.018 (at node 3)
Injected flit rate average = 0.01
	minimum = 0.004 (at node 1)
	maximum = 0.018 (at node 6)
Accepted flit rate average= 0.01
	minimum = 0.004 (at node 4)
	maximum = 0.018 (at node 3)
Injected packet length average = 1
Accepted packet length average = 1
Total in-flight flits = 4 (4 measured)
latency change    = 0.0348763
throughput change = 0.05
Class 0:
Packet latency average = 19.8545
	minimum = 7
	maximum = 44
Network latency average = 19.8545
	minimum = 7
	maximum = 44
Slowest packet = 32061
Flit latency average = 20.142
	minimum = 7
	maximum = 44
Slowest flit = 32061
Fragmentation average = 0
	minimum = 0
	maximum = 0
Injected packet rate average = 0.0106875
	minimum = 0.002 (at node 5)
	maximum = 0.016 (at node 6)
Accepted packet rate average = 0.0105625
	minimum = 0.002 (at node 5)
	maximum = 0.015 (at node 1)
Injected flit rate average = 0.0106875
	minimum = 0.002 (at node 5)
	maximum = 0.016 (at node 6)
Accepted flit rate average= 0.0105625
	minimum = 0.002 (at node 5)
	maximum = 0.015 (at node 1)
Injected packet length average = 1
Accepted packet length average = 1
Total in-flight flits = 6 (6 measured)
latency change    = 0.0451007
throughput change = 0.0532544
Class 0:
Packet latency average = 19.789
	minimum = 7
	maximum = 44
Network latency average = 19.789
	minimum = 7
	maximum = 44
Slowest packet = 32061
Flit latency average = 19.9917
	minimum = 7
	maximum = 44
Slowest flit = 32061
Fragmentation average = 0
	minimum = 0
	maximum = 0
Injected packet rate average = 0.0100417
	minimum = 0.004 (at node 5)
	maximum = 0.0133333 (at node 6)
Accepted packet rate average = 0.0100417
	minimum = 0.004 (at node 5)
	maximum = 0.0133333 (at node 9)
Injected flit rate average = 0.0100417
	minimum = 0.004 (at node 5)
	maximum = 0.0133333 (at node 6)
Accepted flit rate average= 0.0100417
	minimum = 0.004 (at node 5)
	maximum = 0.0133333 (at node 9)
Injected packet length average = 1
Accepted packet length average = 1
Total in-flight flits = 4 (4 measured)
latency change    = 0.00331072
throughput change = 0.0518672
Class 0:
Packet latency average = 19.6728
	minimum = 7
	maximum = 44
Network latency average = 19.6728
	minimum = 7
	maximum = 44
Slowest packet = 32061
Flit latency average = 19.8232
	minimum = 7
	maximum = 44
Slowest flit = 32061
Fragmentation average = 0
	minimum = 0
	maximum = 0
Injected packet rate average = 0.0101563
	minimum = 0.007 (at node 5)
	maximum = 0.012 (at node 6)
Accepted packet rate average = 0.01025
	minimum = 0.007 (at node 5)
	maximum = 0.012 (at node 9)
Injected flit rate average = 0.0101563
	minimum = 0.007 (at node 5)
	maximum = 0.012 (at node 6)
Accepted flit rate average= 0.01025
	minimum = 0.007 (at node 5)
	maximum = 0.012 (at node 9)
Injected packet length average = 1
Accepted packet length average = 1
Total in-flight flits = 1 (1 measured)
latency change    = 0.00590611
throughput change = 0.0203252
Class 0:
Packet latency average = 19.6466
	minimum = 7
	maximum = 44
Network latency average = 19.6466
	minimum = 7
	maximum = 44
Slowest packet = 32061
Flit latency average = 19.7692
	minimum = 7
	maximum = 44
Slowest flit = 32061
Fragmentation average = 0
	minimum = 0
	maximum = 0
Injected packet rate average = 0.01005
	minimum = 0.0076 (at node 5)
	maximum = 0.0128 (at node 0)
Accepted packet rate average = 0.010075
	minimum = 0.0076 (at node 5)
	maximum = 0.0128 (at node 14)
Injected flit rate average = 0.01005
	minimum = 0.0076 (at node 5)
	maximum = 0.0128 (at node 0)
Accepted flit rate average= 0.010075
	minimum = 0.0076 (at node 5)
	maximum = 0.0128 (at node 14)
Injected packet length average = 1
Accepted packet length average = 1
Total in-flight flits = 3 (3 measured)
latency change    = 0.00133473
throughput change = 0.0173697
Class 0:
Packet latency average = 19.6763
	minimum = 7
	maximum = 44
Network latency average = 19.6763
	minimum = 7
	maximum = 44
Slowest packet = 32061
Flit latency average = 19.7778
	minimum = 7
	maximum = 44
Slowest flit = 32061
Fragmentation average = 0
	minimum = 0
	maximum = 0
Injected packet rate average = 0.0100833
	minimum = 0.00766667 (at node 5)
	maximum = 0.012 (at node 0)
Accepted packet rate average = 0.010125
	minimum = 0.00766667 (at node 5)
	maximum = 0.012 (at node 0)
Injected flit rate average = 0.0100833
	minimum = 0.00766667 (at node 5)
	maximum = 0.012 (at node 0)
Accepted flit rate average= 0.010125
	minimum = 0.00766667 (at node 5)
	maximum = 0.012 (at node 0)
Injected packet length average = 1
Accepted packet length average = 1
Total in-flight flits = 2 (2 measured)
latency change    = 0.00151105
throughput change = 0.00493827
Draining all recorded packets ...
Draining remaining packets ...
Time taken is 4545 cycles
Class 0:
Packet latency average = 20.7821
	minimum = 7
	maximum = 38
Network latency average = 20.7821
	minimum = 7
	maximum = 38
Slowest packet = 32495
Flit latency average = 20.7821
	minimum = 7
	maximum = 38
Slowest flit = 32495
Fragmentation average = 0
	minimum = 0
	maximum = 0
Injected packet rate average = 0.010375
	minimum = 0.002 (at node 15)
	maximum = 0.022 (at node 1)
Accepted packet rate average = 0.00975
	minimum = 0.002 (at node 15)
	maximum = 0.022 (at node 4)
Injected flit rate average = 0.010375
	minimum = 0.002 (at node 15)
	maximum = 0.022 (at node 1)
Accepted flit rate average= 0.00975
	minimum = 0.002 (at node 15)
	maximum = 0.022 (at node 4)
Injected packet length average = 1
Accepted packet length average = 1
Total in-flight flits = 5 (0 measured)
latency change    = 1
throughput change = 1
Class 0:
Packet latency average = 20.0301
	minimum = 7
	maximum = 38
Network latency average = 20.0301
	minimum = 7
	maximum = 38
Slowest packet = 32495
Flit latency average = 20.0301
	minimum = 7
	maximum = 38
Slowest flit = 32495
Fragmentation average = 0
	minimum = 0
	maximum = 0
Injected packet rate average = 0.010625
	minimum = 0.004 (at node 15)
	maximum = 0.017 (at node 13)
Accepted packet rate average = 0.010375
	minimum = 0.003 (at node 15)
	maximum = 0.017 (at node 7)
Injected flit rate average = 0.010625
	minimum = 0.004 (at node 15)
	maximum = 0.017 (at node 13)
Accepted flit rate average= 0.010375
	minimum = 0.003 (at node 15)
	maximum = 0.017 (at node 7)
Injected packet length average = 1
Accepted packet length average = 1
Total in-flight flits = 4 (0 measured)
latency change    = 0.03754
throughput change = 0.060241
Class 0:
Packet latency average = 20.1169
	minimum = 7
	maximum = 37
Network latency average = 20.1169
	minimum = 7
	maximum = 37
Slowest packet = 32643
Flit latency average = 20.1169
	minimum = 7
	maximum = 37
Slowest flit = 32643
Fragmentation average = 0
	minimum = 0
	maximum = 0
Injected packet rate average = 0.0095
	minimum = 0.004 (at node 10)
	maximum = 0.02 (at node 8)
Accepted packet rate average = 0.009625
	minimum = 0.006 (at node 5)
	maximum = 0.018 (at node 2)
Injected flit rate average = 0.0095
	minimum = 0.004 (at node 10)
	maximum = 0.02 (at node 8)
Accepted flit rate average= 0.009625
	minimum = 0.006 (at node 5)
	maximum = 0.018 (at node 2)
Injected packet length average = 1
Accepted packet length average = 1
Total in-flight flits = 3 (0 measured)
latency change    = 0.00431293
throughput change = 0.0779221
Warmed up ...Time used is 1500 cycles
Class 0:
Packet latency average = 18.5714
	minimum = 7
	maximum = 37
Network latency average = 18.5714
	minimum = 7
	maximum = 37
Slowest packet = 32743
Flit latency average = 18.6375
	minimum = 7
	maximum = 37
Slowest flit = 32743
Fragmentation average = 0
	minimum = 0
	maximum = 0
Injected packet rate average = 0.01
	minimum = 0.006 (at node 2)
	maximum = 0.016 (at node 13)
Accepted packet rate average = 0.01
	minimum = 0.006 (at node 8)
	maximum = 0.016 (at node 7)
Injected flit rate average = 0.01
	minimum = 0.006 (at node 2)
	maximum = 0.016 (at node 13)
Accepted flit rate average= 0.01
	minimum = 0.006 (at node 8)
	maximum = 0.016 (at node 7)
Injected packet length average = 1
Accepted packet length average = 1
Total in-flight flits = 3 (3 measured)
latency change    = 0.0832168
throughput change = 0.0375
Class 0:
Packet latency average = 18.7018
	minimum = 7
	maximum = 37
Network latency average = 18.7018
	minimum = 7
	maximum = 37
Slowest packet = 32743
Flit latency average = 18.7299
	minimum = 7
	maximum = 37
Slowest flit = 32743
Fragmentation average = 0
	minimum = 0
	maximum = 0
Injected packet rate average = 0.01075
	minimum = 0.006 (at node 9)
	maximum = 0.017 (at node 11)
Accepted packet rate average = 0.010875
	minimum = 0.006 (at node 6)
	maximum = 0.017 (at node 14)
Injected flit rate average = 0.01075
	minimum = 0.006 (at node 9)
	maximum = 0.017 (at node 11)
Accepted flit rate average= 0.010875
	minimum = 0.006 (at node 6)
	maximum = 0.017 (at node 14)
Injected packet length average = 1
Accepted packet length average = 1
Total in-flight flits = 1 (1 measured)
latency change    = 0.00696864
throughput change = 0.0804598
Class 0:
Packet latency average = 18.8446
	minimum = 7
	maximum = 37
Network latency average = 18.8446
	minimum = 7
	maximum = 37
Slowest packet = 32743
Flit latency average = 18.8622
	minimum = 7
	maximum = 37
Slowest flit = 32743
Fragmentation average = 0
	minimum = 0
	maximum = 0
Injected packet rate average = 0.0105833
	minimum = 0.00666667 (at node 2)
	maximum = 0.0153333 (at node 4)
Accepted packet rate average = 0.0105833
	minimum = 0.006 (at node 6)
	maximum = 0.0153333 (at node 1)
Injected flit rate average = 0.0105833
	minimum = 0.00666667 (at node 2)
	maximum = 0.0153333 (at node 4)
Accepted flit rate average= 0.0105833
	minimum = 0.006 (at node 6)
	maximum = 0.0153333 (at node 1)
Injected packet length average = 1
Accepted packet length average = 1
Total in-flight flits = 3 (3 measured)
latency change    = 0.00758132
throughput change = 0.0275591
Class 0:
Packet latency average = 18.8235
	minimum = 7
	maximum = 43
Network latency average = 18.8235
	minimum = 7
	maximum = 43
Slowest packet = 33027
Flit latency average = 18.8367
	minimum = 7
	maximum = 43
Slowest flit = 33027
Fragmentation average = 0
	minimum = 0
	maximum = 0
Injected packet rate average = 0.0107188
	minimum = 0.0065 (at node 8)
	maximum = 0.0145 (at node 14)
Accepted packet rate average = 0.0107188
	minimum = 0.0065 (at node 6)
	maximum = 0.0145 (at node 14)
Injected flit rate average = 0.0107188
	minimum = 0.0065 (at node 8)
	maximum = 0.0145 (at node 14)
Accepted flit rate average= 0.0107188
	minimum = 0.0065 (at node 6)
	maximum = 0.0145 (at node 14)
Injected packet length average = 1
Accepted packet length average = 1
Total in-flight flits = 3 (3 measured)
latency change    = 0.00112052
throughput change = 0.0126336
Class 0:
Packet latency average = 18.6957
	minimum = 7
	maximum = 43
Network latency average = 18.6957
	minimum = 7
	maximum = 43
Slowest packet = 33027
Flit latency average = 18.7074
	minimum = 7
	maximum = 43
Slowest flit = 33027
Fragmentation average = 0
	minimum = 0
	maximum = 0
Injected packet rate average = 0.0105
	minimum = 0.006 (at node 8)
	maximum = 0.014 (at node 10)
Accepted packet rate average = 0.010425
	minimum = 0.0064 (at node 2)
	maximum = 0.014 (at node 10)
Injected flit rate average = 0.0105
	minimum = 0.006 (at node 8)
	maximum = 0.014 (at node 10)
Accepted flit rate average= 0.010425
	minimum = 0.0064 (at node 2)
	maximum = 0.014 (at node 10)
Injected packet length average = 1
Accepted packet length average = 1
Total in-flight flits = 6 (6 measured)
latency change    = 0.00683995
throughput change = 0.0281775
Draining all recorded packets ...
Draining remaining packets ...
Time taken is 4055 cycles
====== Overall Traffic Statistics ======
====== Traffic class 0 ======
Packet latency average = 19.5881 (50 samples)
	minimum = 7 (50 samples)
	maximum = 41.06 (50 samples)
Network latency average = 19.5881 (50 samples)
	minimum = 7 (50 samples)
	maximum = 41.06 (50 samples)
Flit latency average = 19.6127 (50 samples)
	minimum = 7 (50 samples)
	maximum = 41.2 (50 samples)
Fragmentation average = 0 (50 samples)
	minimum = 0 (50 samples)
	maximum = 0 (50 samples)
Injected packet rate average = 0.0100427 (50 samples)
	minimum = 0.00672857 (50 samples)
	maximum = 0.0136255 (50 samples)
Accepted packet rate average = 0.0100443 (50 samples)
	minimum = 0.0067539 (50 samples)
	maximum = 0.0135558 (50 samples)
Injected flit rate average = 0.0100427 (50 samples)
	minimum = 0.00672857 (50 samples)
	maximum = 0.0136255 (50 samples)
Accepted flit rate average = 0.0100443 (50 samples)
	minimum = 0.0067539 (50 samples)
	maximum = 0.0135558 (50 samples)
Injected packet size average = 1 (50 samples)
Accepted packet size average = 1 (50 samples)
Hops average = 3.50423 (50 samples)
Total run time 1.1294
