BEGIN Configuration File: /tmp/tmp0c_hosrf.cfg
topology = mesh;
k = 4;
n = 2;
routing_function = planar_adapt;
num_vcs = 4;
vc_buf_size = 4;
wait_for_tail_credit = 1;
vc_allocator = islip;
sw_allocator = islip;
alloc_iters = 1;
credit_delay = 2;
routing_delay = 1;
vc_alloc_delay = 1;
sw_alloc_delay = 1;
input_speedup = 2;
output_speedup = 1;
internal_speedup = 1.0;
traffic = uniform;
packet_size = 1;
sim_type = latency;
injection_rate = 0.01;
warmup_periods = 3;
sample_period = 500;
sim_count = 50;
seed = 2;
link_failures = 4;
fail_seed = 202;

END Configuration File: /tmp/tmp0c_hosrf.cfg
failure at node 4, channel 2 (1/4)
failure at node 13, channel 0 (2/4)
failure at node 6, channel 1 (3/4)
failure at node 11, channel 3 (4/4)
Class 0:
Packet latency average = 19.1429
	minimum = 7
	maximum = 52
Network latency average = 19.1429
	minimum = 7
	maximum = 52
Slowest packet = 56
Flit latency average = 19.1429
	minimum = 7
	maximum = 52
Slowest flit = 56
Fragmentation average = 0
	minimum = 0
	maximum = 0
Injected packet rate average = 0.008125
	minimum = 0 (at node 9)
	maximum = 0.014 (at node 5)
Accepted packet rate average = 0.007875
	minimum = 0.002 (at node 5)
	maximum = 0.02 (at node 9)
Injected flit rate average = 0.008125
	minimum = 0 (at node 9)
	maximum = 0.014 (at node 5)
Accepted flit rate average= 0.007875
	minimum = 0.002 (at node 5)
	maximum = 0.02 (at node 9)
Injected packet length average = 1
Accepted packet length average = 1
Total in-flight flits = 2 (0 measured)
latency change    = 1
throughput change = 1
Class 0:
Packet latency average = 20.0985
	minimum = 7
	maximum = 58
Network latency average = 20.0985
	minimum = 7
	maximum = 58
Slowest packet = 76
Flit latency average = 20.0985
	minimum = 7
	maximum = 58
Slowest flit = 76
Fragmentation average = 0
	minimum = 0
	maximum = 0
Injected packet rate average = 0.008625
	minimum = 0.003 (at node 2)
	maximum = 0.015 (at node 13)
Accepted packet rate average = 0.00825
	minimum = 0.004 (at node 6)
	maximum = 0.015 (at node 9)
Injected flit rate average = 0.008625
	minimum = 0.003 (at node 2)
	maximum = 0.015 (at node 13)
Accepted flit rate average= 0.00825
	minimum = 0.004 (at node 6)
	maximum = 0.015 (at node 9)
Injected packet length average = 1
Accepted packet length average = 1
Total in-flight flits = 6 (0 measured)
latency change    = 0.0475473
throughput change = 0.0454545
Class 0:
Packet latency average = 23.8
	minimum = 7
	maximum = 67
Network latency average = 23.8
	minimum = 7
	maximum = 67
Slowest packet = 164
Flit latency average = 23.8
	minimum = 7
	maximum = 67
Slowest flit = 164
Fragmentation average = 0
	minimum = 0
	maximum = 0
Injected packet rate average = 0.01
	minimum = 0.002 (at node 3)
	maximum = 0.022 (at node 13)
Accepted packet rate average = 0.010625
	minimum = 0.002 (at node 9)
	maximum = 0.018 (at node 4)
Injected flit rate average = 0.01
	minimum = 0.002 (at node 3)
	maximum = 0.022 (at node 13)
Accepted flit rate average= 0.010625
	minimum = 0.002 (at node 9)
	maximum = 0.018 (at node 4)
Injected packet length average = 1
Accepted packet length average = 1
Total in-flight flits = 1 (0 measured)
latency change    = 0.155526
throughput change = 0.223529
Warmed up ...Time used is 1500 cycles
Class 0:
Packet latency average = 20.0814
	minimum = 7
	maximum = 57
Network latency average = 20.0814
	minimum = 7
	maximum = 57
Slowest packet = 220
Flit latency average = 20.2184
	minimum = 7
	maximum = 57
Slowest flit = 220
Fragmentation average = 0
	minimum = 0
	maximum = 0
Injected packet rate average = 0.01125
	minimum = 0.004 (at node 15)
	maximum = 0.022 (at node 10)
Accepted packet rate average = 0.010875
	minimum = 0.002 (at node 2)
	maximum = 0.018 (at node 14)
Injected flit rate average = 0.01125
	minimum = 0.004 (at node 15)
	maximum = 0.022 (at node 10)
Accepted flit rate average= 0.010875
	minimum = 0.002 (at node 2)
	maximum = 0.018 (at node 14)
Injected packet length average = 1
Accepted packet length average = 1
Total in-flight flits = 4 (4 measured)
latency change    = 0.185177
throughput change = 0.0229885
Class 0:
Packet latency average = 20.8193
	minimum = 7
	maximum = 65
Network latency average = 20.8193
	minimum = 7
	maximum = 65
Slowest packet = 376
Flit latency average = 20.8862
	minimum = 7
	maximum = 65
Slowest flit = 376
Fragmentation average = 0
	minimum = 0
	maximum = 0
Injected packet rate average = 0.0105
	minimum = 0.006 (at node 2)
	maximum = 0.015 (at node 3)
Accepted packet rate average = 0.0104375
	minimum = 0.004 (at node 2)
	maximum = 0.015 (at node 14)
Injected flit rate average = 0.0105
	minimum = 0.006 (at node 2)
	maximum = 0.015 (at node 3)
Accepted flit rate average= 0.0104375
	minimum = 0.004 (at node 2)
	maximum = 0.015 (at node 14)
Injected packet length average = 1
Accepted packet length average = 1
Total in-flight flits = 2 (2 measured)
latency change    = 0.0354422
throughput change = 0.0419162
Class 0:
Packet latency average = 21.141
	minimum = 7
	maximum = 65
Network latency average = 21.141
	minimum = 7
	maximum = 65
Slowest packet = 376
Flit latency average = 21.1872
	minimum = 7
	maximum = 65
Slowest flit = 376
Fragmentation average = 0
	minimum = 0
	maximum = 0
Injected packet rate average = 0.00983333
	minimum = 0.00666667 (at node 1)
	maximum = 0.0153333 (at node 3)
Accepted packet rate average = 0.00979167
	minimum = 0.00466667 (at node 4)
	maximum = 0.0126667 (at node 5)
Injected flit rate average = 0.00983333
	minimum = 0.00666667 (at node 1)
	maximum = 0.0153333 (at node 3)
Accepted flit rate average= 0.00979167
	minimum = 0.00466667 (at node 4)
	maximum = 0.0126667 (at node 5)
Injected packet length average = 1
Accepted packet length average = 1
Total in-flight flits = 2 (2 measured)
latency change    = 0.0152192
throughput change = 0.0659574
Class 0:
Packet latency average = 21.7081
	minimum = 7
	maximum = 65
Network latency average = 21.7081
	minimum = 7
	maximum = 65
Slowest packet = 376
Flit latency average = 21.7399
	minimum = 7
	maximum = 65
Slowest flit = 376
Fragmentation average = 0
	minimum = 0
	maximum = 0
Injected packet rate average = 0.0101875
	minimum = 0.0065 (at node 8)
	maximum = 0.014 (at node 10)
Accepted packet rate average = 0.0100938
	minimum = 0.0065 (at node 4)
	maximum = 0.0135 (at node 1)
Injected flit rate average = 0.0101875
	minimum = 0.0065 (at node 8)
	maximum = 0.014 (at node 10)
Accepted flit rate average= 0.0100938
	minimum = 0.0065 (at node 4)
	maximum = 0.0135 (at node 1)
Injected packet length average = 1
Accepted packet length average = 1
Total in-flight flits = 4 (4 measured)
latency change    = 0.0261216
throughput change = 0.0299278
Class 0:
Packet latency average = 21.7475
	minimum = 7
	maximum = 65
Network latency average = 21.7475
	minimum = 7
	maximum = 65
Slowest packet = 376
Flit latency average = 21.7726
	minimum = 7
	maximum = 65
Slowest flit = 376
Fragmentation average = 0
	minimum = 0
	maximum = 0
Injected packet rate average = 0.010275
	minimum = 0.0076 (at node 1)
	maximum = 0.0136 (at node 12)
Accepted packet rate average = 0.010225
	minimum = 0.006 (at node 2)
	maximum = 0.0136 (at node 1)
Injected flit rate average = 0.010275
	minimum = 0.0076 (at node 1)
	maximum = 0.0136 (at node 12)
Accepted flit rate average= 0.010225
	minimum = 0.006 (at node 2)
	maximum = 0.0136 (at node 1)
Injected packet length average = 1
Accepted packet length average = 1
Total in-flight flits = 3 (3 measured)
latency change    = 0.00181512
throughput change = 0.0128362
Class 0:
Packet latency average = 21.7178
	minimum = 7
	maximum = 65
Network latency average = 21.7178
	minimum = 7
	maximum = 65
Slowest packet = 376
Flit latency average = 21.7388
	minimum = 7
	maximum = 65
Slowest flit = 376
Fragmentation average = 0
	minimum = 0
	maximum = 0
Injected packet rate average = 0.0103125
	minimum = 0.00766667 (at node 1)
	maximum = 0.0136667 (at node 10)
Accepted packet rate average = 0.0102083
	minimum = 0.006 (at node 2)
	maximum = 0.013 (at node 7)
Injected flit rate average = 0.0103125
	minimum = 0.00766667 (at node 1)
	maximum = 0.0136667 (at node 10)
Accepted flit rate average= 0.0102083
	minimum = 0.006 (at node 2)
	maximum = 0.013 (at node 7)
Injected packet length average = 1
Accepted packet length average = 1
Total in-flight flits = 6 (6 measured)
latency change    = 0.00137019
throughput change = 0.00163265
Draining all recorded packets ...
Draining remaining packets ...
Time taken is 4548 cycles
Class 0:
Packet latency average = 21.1045
	minimum = 7
	maximum = 52
Network latency average = 21.1045
	minimum = 7
	maximum = 52
Slowest packet = 740
Flit latency average = 21.1045
	minimum = 7
	maximum = 52
Slowest flit = 740
Fragmentation average = 0
	minimum = 0
	maximum = 0
Injected packet rate average = 0.009
	minimum = 0.004 (at node 13)
	maximum = 0.026 (at node 5)
Accepted packet rate average = 0.008375
	minimum = 0.002 (at node 3)
	maximum = 0.016 (at node 14)
Injected flit rate average = 0.009
	minimum = 0.004 (at node 13)
	maximum = 0.026 (at node 5)
Accepted flit rate average= 0.008375
	minimum = 0.002 (at node 3)
	maximum = 0.016 (at node 14)
Injected packet length average = 1
Accepted packet length average = 1
Total in-flight flits = 5 (0 measured)
latency change    = 1
throughput change = 1
Class 0:
Packet latency average = 20.9308
	minimum = 7
	maximum = 52
Network latency average = 20.9308
	minimum = 7
	maximum = 52
Slowest packet = 740
Flit latency average = 20.9308
	minimum = 7
	maximum = 52
Slowest flit = 740
Fragmentation average = 0
	minimum = 0
	maximum = 0
Injected packet rate average = 0.0100625
	minimum = 0.005 (at node 2)
	maximum = 0.018 (at node 5)
Accepted packet rate average = 0.0099375
	minimum = 0.003 (at node 3)
	maximum = 0.016 (at node 5)
Injected flit rate average = 0.0100625
	minimum = 0.005 (at node 2)
	maximum = 0.018 (at node 5)
Accepted flit rate average= 0.0099375
	minimum = 0.003 (at node 3)
	maximum = 0.016 (at node 5)
Injected packet length average = 1
Accepted packet length average = 1
Total in-flight flits = 2 (0 measured)
latency change    = 0.00829686
throughput change = 0.157233
Class 0:
Packet latency average = 22.3026
	minimum = 7
	maximum = 52
Network latency average = 22.3026
	minimum = 7
	maximum = 52
Slowest packet = 895
Flit latency average = 22.3026
	minimum = 7
	maximum = 52
Slowest flit = 895
Fragmentation average = 0
	minimum = 0
	maximum = 0
Injected packet rate average = 0.009625
	minimum = 0.004 (at node 1)
	maximum = 0.018 (at node 9)
Accepted packet rate average = 0.0095
	minimum = 0.004 (at node 5)
	maximum = 0.02 (at node 0)
Injected flit rate average = 0.009625
	minimum = 0.004 (at node 1)
	maximum = 0.018 (at node 9)
Accepted flit rate average= 0.0095
	minimum = 0.004 (at node 5)
	maximum = 0.02 (at node 0)
Injected packet length average = 1
Accepted packet length average = 1
Total in-flight flits = 3 (0 measured)
latency change    = 0.0615091
throughput change = 0.0460526
Warmed up ...Time used is 1500 cycles
Class 0:
Packet latency average = 21.3452
	minimum = 7
	maximum = 47
Network latency average = 21.3452
	minimum = 7
	maximum = 47
Slowest packet = 1012
Flit latency average = 21.3678
	minimum = 7
	maximum = 47
Slowest flit = 1012
Fragmentation average = 0
	minimum = 0
	maximum = 0
Injected packet rate average = 0.010875
	minimum = 0.004 (at node 6)
	maximum = 0.016 (at node 5)
Accepted packet rate average = 0.010875
	minimum = 0.006 (at node 4)
	maximum = 0.018 (at node 0)
Injected flit rate average = 0.010875
	minimum = 0.004 (at node 6)
	maximum = 0.016 (at node 5)
Accepted flit rate average= 0.010875
	minimum = 0.006 (at node 4)
	maximum = 0.018 (at node 0)
Injected packet length average = 1
Accepted packet length average = 1
Total in-flight flits = 3 (3 measured)
latency change    = 0.0448528
throughput change = 0.126437
Class 0:
Packet latency average = 21.8023
	minimum = 7
	maximum = 52
Network latency average = 21.8023
	minimum = 7
	maximum = 52
Slowest packet = 1042
Flit latency average = 21.8057
	minimum = 7
	maximum = 52
Slowest flit = 1042
Fragmentation average = 0
	minimum = 0
	maximum = 0
Injected packet rate average = 0.0109375
	minimum = 0.007 (at node 6)
	maximum = 0.015 (at node 5)
Accepted packet rate average = 0.0109375
	minimum = 0.006 (at node 2)
	maximum = 0.016 (at node 0)
Injected flit rate average = 0.0109375
	minimum = 0.007 (at node 6)
	maximum = 0.015 (at node 5)
Accepted flit rate average= 0.0109375
	minimum = 0.006 (at node 2)
	maximum = 0.016 (at node 0)
Injected packet length average = 1
Accepted packet length average = 1
Total in-flight flits = 3 (3 measured)
latency change    = 0.0209651
throughput change = 0.00571429
Class 0:
Packet latency average = 21.0827
	minimum = 7
	maximum = 52
Network latency average = 21.0827
	minimum = 7
	maximum = 52
Slowest packet = 1042
Flit latency average = 21.0934
	minimum = 7
	maximum = 52
Slowest flit = 1042
Fragmentation average = 0
	minimum = 0
	maximum = 0
Injected packet rate average = 0.01075
	minimum = 0.00866667 (at node 2)
	maximum = 0.0153333 (at node 5)
Accepted packet rate average = 0.0107083
	minimum = 0.00733333 (at node 4)
	maximum = 0.0146667 (at node 0)
Injected flit rate average = 0.01075
	minimum = 0.00866667 (at node 2)
	maximum = 0.0153333 (at node 5)
Accepted flit rate average= 0.0107083
	minimum = 0.00733333 (at node 4)
	maximum = 0.0146667 (at node 0)
Injected packet length average = 1
Accepted packet length average = 1
Total in-flight flits = 4 (4 measured)
latency change    = 0.0341346
throughput change = 0.0214008
Class 0:
Packet latency average = 21.0783
	minimum = 7
	maximum = 58
Network latency average = 21.0783
	minimum = 7
	maximum = 58
Slowest packet = 1271
Flit latency average = 21.0866
	minimum = 7
	maximum = 58
Slowest flit = 1271
Fragmentation average = 0
	minimum = 0
	maximum = 0
Injected packet rate average = 0.0104063
	minimum = 0.008 (at node 6)
	maximum = 0.015 (at node 3)
Accepted packet rate average = 0.0104688
	minimum = 0.0065 (at node 4)
	maximum = 0.0135 (at node 0)
Injected flit rate average = 0.0104063
	minimum = 0.008 (at node 6)
	maximum = 0.015 (at node 3)
Accepted flit rate average= 0.0104688
	minimum = 0.0065 (at node 4)
	maximum = 0.0135 (at node 0)
Injected packet length average = 1
Accepted packet length average = 1
Total in-flight flits = 1 (1 measured)
latency change    = 0.000207033
throughput change = 0.0228856
Draining all recorded packets ...
Draining remaining packets ...
Time taken is 3550 cycles
Class 0:
Packet latency average = 21.0658
	minimum = 7
	maximum = 52
Network latency average = 21.0658
	minimum = 7
	maximum = 52
Slowest packet = 1341
Flit latency average = 21.0658
	minimum = 7
	maximum = 52
Slowest flit = 1341
Fragmentation average = 0
	minimum = 0
	maximum = 0
Injected packet rate average = 0.00975
	minimum = 0.002 (at node 11)
	maximum = 0.014 (at node 1)
Accepted packet rate average = 0.0095
	minimum = 0.004 (at node 0)
	maximum = 0.014 (at node 5)
Injected flit rate average = 0.00975
	minimum = 0.002 (at node 11)
	maximum = 0.014 (at node 1)
Accepted flit rate average= 0.0095
	minimum = 0.004 (at node 0)
	maximum = 0.014 (at node 5)
Injected packet length average = 1
Accepted packet length average = 1
Total in-flight flits = 2 (0 measured)
latency change    = 1
throughput change = 1
Class 0:
Packet latency average = 21.5399
	minimum = 7
	maximum = 52
Network latency average = 21.5399
	minimum = 7
	maximum = 52
Slowest packet = 1341
Flit latency average = 21.5399
	minimum = 7
	maximum = 52
Slowest flit = 1341
Fragmentation average = 0
	minimum = 0
	maximum = 0
Injected packet rate average = 0.010625
	minimum = 0.006 (at node 5)
	maximum = 0.015 (at node 8)
Accepted packet rate average = 0.0101875
	minimum = 0.005 (at node 0)
	maximum = 0.013 (at node 2)
Injected flit rate average = 0.010625
	minimum = 0.006 (at node 5)
	maximum = 0.015 (at node 8)
Accepted flit rate average= 0.0101875
	minimum = 0.005 (at node 0)
	maximum = 0.013 (at node 2)
Injected packet length average = 1
Accepted packet length average = 1
Total in-flight flits = 7 (0 measured)
latency change    = 0.0220098
throughput change = 0.0674847
Class 0:
Packet latency average = 23.1458
	minimum = 7
	maximum = 57
Network latency average = 23.1458
	minimum = 7
	maximum = 57
Slowest packet = 1467
Flit latency average = 23.1458
	minimum = 7
	maximum = 57
Slowest flit = 1467
Fragmentation average = 0
	minimum = 0
	maximum = 0
Injected packet rate average = 0.011375
	minimum = 0 (at node 7)
	maximum = 0.022 (at node 0)
Accepted packet rate average = 0.012
	minimum = 0.002 (at node 4)
	maximum = 0.02 (at node 5)
Injected flit rate average = 0.011375
	minimum = 0 (at node 7)
	maximum = 0.022 (at node 0)
Accepted flit rate average= 0.012
	minimum = 0.002 (at node 4)
	maximum = 0.02 (at node 5)
Injected packet length average = 1
Accepted packet length average = 1
Total in-flight flits = 2 (0 measured)
latency change    = 0.0693842
throughput change = 0.151042
Warmed up ...Time used is 1500 cycles
Class 0:
Packet latency average = 22.0108
	minimum = 7
	maximum = 52
Network latency average = 22.0108
	minimum = 7
	maximum = 52
Slowest packet = 1549
Flit latency average = 22.1684
	minimum = 7
	maximum = 52
Slowest flit = 1542
Fragmentation average = 0
	minimum = 0
	maximum = 0
Injected packet rate average = 0.01175
	minimum = 0.004 (at node 1)
	maximum = 0.022 (at node 0)
Accepted packet rate average = 0.011875
	minimum = 0.002 (at node 15)
	maximum = 0.022 (at node 2)
Injected flit rate average = 0.01175
	minimum = 0.004 (at node 1)
	maximum = 0.022 (at node 0)
Accepted flit rate average= 0.011875
	minimum = 0.002 (at node 15)
	maximum = 0.022 (at node 2)
Injected packet length average = 1
Accepted packet length average = 1
Total in-flight flits = 1 (1 measured)
latency change    = 0.0515694
throughput change = 0.0105263
Class 0:
Packet latency average = 21.6919
	minimum = 7
	maximum = 57
Network latency average = 21.6919
	minimum = 7
	maximum = 57
Slowest packet = 1692
Flit latency average = 21.7816
	minimum = 7
	maximum = 57
Slowest flit = 1692
Fragmentation average = 0
	minimum = 0
	maximum = 0
Injected packet rate average = 0.0113125
	minimum = 0.005 (at node 3)
	maximum = 0.019 (at node 14)
Accepted packet rate average = 0.010875
	minimum = 0.004 (at node 15)
	maximum = 0.019 (at node 2)
Injected flit rate average = 0.0113125
	minimum = 0.005 (at node 3)
	maximum = 0.019 (at node 14)
Accepted flit rate average= 0.010875
	minimum = 0.004 (at node 15)
	maximum = 0.019 (at node 2)
Injected packet length average = 1
Accepted packet length average = 1
Total in-flight flits = 9 (9 measured)
latency change    = 0.014701
throughput change = 0.091954
Class 0:
Packet latency average = 21.5019
	minimum = 7
	maximum = 58
Network latency average = 21.5019
	minimum = 7
	maximum = 58
Slowest packet = 1720
Flit latency average = 21.5609
	minimum = 7
	maximum = 58
Slowest flit = 1720
Fragmentation average = 0
	minimum = 0
	maximum = 0
Injected packet rate average = 0.0114167
	minimum = 0.00466667 (at node 1)
	maximum = 0.018 (at node 6)
Accepted packet rate average = 0.0112917
	minimum = 0.00533333 (at node 0)
	maximum = 0.018 (at node 2)
Injected flit rate average = 0.0114167
	minimum = 0.00466667 (at node 1)
	maximum = 0.018 (at node 6)
Accepted flit rate average= 0.0112917
	minimum = 0.00533333 (at node 0)
	maximum = 0.018 (at node 2)
Injected packet length average = 1
Accepted packet length average = 1
Total in-flight flits = 5 (5 measured)
latency change    = 0.00883653
throughput change = 0.0369004
Class 0:
Packet latency average = 21.4039
	minimum = 7
	maximum = 58
Network latency average = 21.4039
	minimum = 7
	maximum = 58
Slowest packet = 1720
Flit latency average = 21.4488
	minimum = 7
	maximum = 58
Slowest flit = 1720
Fragmentation average = 0
	minimum = 0
	maximum = 0
Injected packet rate average = 0.0113125
	minimum = 0.006 (at node 9)
	maximum = 0.0155 (at node 6)
Accepted packet rate average = 0.0112812
	minimum = 0.0055 (at node 0)
	maximum = 0.0185 (at node 2)
Injected flit rate average = 0.0113125
	minimum = 0.006 (at node 9)
	maximum = 0.0155 (at node 6)
Accepted flit rate average= 0.0112812
	minimum = 0.0055 (at node 0)
	maximum = 0.0185 (at node 2)
Injected packet length average = 1
Accepted packet length average = 1
Total in-flight flits = 3 (3 measured)
latency change    = 0.00457669
throughput change = 0.000923361
Class 0:
Packet latency average = 21.5646
	minimum = 7
	maximum = 58
Network latency average = 21.5646
	minimum = 7
	maximum = 58
Slowest packet = 1720
Flit latency average = 21.6005
	minimum = 7
	maximum = 58
Slowest flit = 1720
Fragmentation average = 0
	minimum = 0
	maximum = 0
Injected packet rate average = 0.011075
	minimum = 0.0052 (at node 9)
	maximum = 0.0144 (at node 6)
Accepted packet rate average = 0.011075
	minimum = 0.0068 (at node 0)
	maximum = 0.0164 (at node 2)
Injected flit rate average = 0.011075
	minimum = 0.0052 (at node 9)
	maximum = 0.0144 (at node 6)
Accepted flit rate average= 0.011075
	minimum = 0.0068 (at node 0)
	maximum = 0.0164 (at node 2)
Injected packet length average = 1
Accepted packet length average = 1
Total in-flight flits = 2 (2 measured)
latency change    = 0.00745323
throughput change = 0.018623
Draining all recorded packets ...
Draining remaining packets ...
Time taken is 4007 cycles
Class 0:
Packet latency average = 21.1
	minimum = 7
	maximum = 64
Network latency average = 21.1
	minimum = 7
	maximum = 64
Slowest packet = 2022
Flit latency average = 21.1
	minimum = 7
	maximum = 64
Slowest flit = 2022
Fragmentation average = 0
	minimum = 0
	maximum = 0
Injected packet rate average = 0.00925
	minimum = 0.002 (at node 10)
	maximum = 0.014 (at node 6)
Accepted packet rate average = 0.00875
	minimum = 0.004 (at node 2)
	maximum = 0.024 (at node 4)
Injected flit rate average = 0.00925
	minimum = 0.002 (at node 10)
	maximum = 0.014 (at node 6)
Accepted flit rate average= 0.00875
	minimum = 0.004 (at node 2)
	maximum = 0.024 (at node 4)
Injected packet length average = 1
Accepted packet length average = 1
Total in-flight flits = 4 (0 measured)
latency change    = 1
throughput change = 1
Class 0:
Packet latency average = 21.4653
	minimum = 7
	maximum = 64
Network latency average = 21.4653
	minimum = 7
	maximum = 64
Slowest packet = 2022
Flit latency average = 21.4653
	minimum = 7
	maximum = 64
Slowest flit = 2022
Fragmentation average = 0
	minimum = 0
	maximum = 0
Injected packet rate average = 0.0090625
	minimum = 0.003 (at node 10)
	maximum = 0.014 (at node 0)
Accepted packet rate average = 0.009
	minimum = 0.004 (at node 5)
	maximum = 0.018 (at node 4)
Injected flit rate average = 0.0090625
	minimum = 0.003 (at node 10)
	maximum = 0.014 (at node 0)
Accepted flit rate average= 0.009
	minimum = 0.004 (at node 5)
	maximum = 0.018 (at node 4)
Injected packet length average = 1
Accepted packet length average = 1
Total in-flight flits = 1 (0 measured)
latency change    = 0.0170171
throughput change = 0.0277778
Class 0:
Packet latency average = 23.2841
	minimum = 7
	maximum = 62
Network latency average = 23.2841
	minimum = 7
	maximum = 62
Slowest packet = 2207
Flit latency average = 23.2841
	minimum = 7
	maximum = 62
Slowest flit = 2207
Fragmentation average = 0
	minimum = 0
	maximum = 0
Injected packet rate average = 0.011625
	minimum = 0.004 (at node 6)
	maximum = 0.024 (at node 14)
Accepted packet rate average = 0.011
	minimum = 0.002 (at node 9)
	maximum = 0.02 (at node 1)
Injected flit rate average = 0.011625
	minimum = 0.004 (at node 6)
	maximum = 0.024 (at node 14)
Accepted flit rate average= 0.011
	minimum = 0.002 (at node 9)
	maximum = 0.02 (at node 1)
Injected packet length average = 1
Accepted packet length average = 1
Total in-flight flits = 6 (0 measured)
latency change    = 0.078114
throughput change = 0.181818
Warmed up ...Time used is 1500 cycles
Class 0:
Packet latency average = 23.5616
	minimum = 7
	maximum = 52
Network latency average = 23.5616
	minimum = 7
	maximum = 52
Slowest packet = 2235
Flit latency average = 23.4177
	minimum = 7
	maximum = 52
Slowest flit = 2235
Fragmentation average = 0
	minimum = 0
	maximum = 0
Injected packet rate average = 0.0095
	minimum = 0.004 (at node 8)
	maximum = 0.016 (at node 4)
Accepted packet rate average = 0.009875
	minimum = 0.006 (at node 7)
	maximum = 0.016 (at node 6)
Injected flit rate average = 0.0095
	minimum = 0.004 (at node 8)
	maximum = 0.016 (at node 4)
Accepted flit rate average= 0.009875
	minimum = 0.006 (at node 7)
	maximum = 0.016 (at node 6)
Injected packet length average = 1
Accepted packet length average = 1
Total in-flight flits = 3 (3 measured)
latency change    = 0.0117799
throughput change = 0.113924
Class 0:
Packet latency average = 21.3775
	minimum = 7
	maximum = 52
Network latency average = 21.3775
	minimum = 7
	maximum = 52
Slowest packet = 2235
Flit latency average = 21.3885
	minimum = 7
	maximum = 52
Slowest flit = 2235
Fragmentation average = 0
	minimum = 0
	maximum = 0
Injected packet rate average = 0.009625
	minimum = 0.005 (at node 3)
	maximum = 0.015 (at node 5)
Accepted packet rate average = 0.0098125
	minimum = 0.004 (at node 4)
	maximum = 0.016 (at node 6)
Injected flit rate average = 0.009625
	minimum = 0.005 (at node 3)
	maximum = 0.015 (at node 5)
Accepted flit rate average= 0.0098125
	minimum = 0.004 (at node 4)
	maximum = 0.016 (at node 6)
Injected packet length average = 1
Accepted packet length average = 1
Total in-flight flits = 3 (3 measured)
latency change    = 0.102171
throughput change = 0.00636943
Class 0:
Packet latency average = 21.4286
	minimum = 7
	maximum = 57
Network latency average = 21.4286
	minimum = 7
	maximum = 57
Slowest packet = 2415
Flit latency average = 21.4346
	minimum = 7
	maximum = 57
Slowest flit = 2415
Fragmentation average = 0
	minimum = 0
	maximum = 0
Injected packet rate average = 0.00966667
	minimum = 0.006 (at node 3)
	maximum = 0.0126667 (at node 5)
Accepted packet rate average = 0.009875
	minimum = 0.006 (at node 4)
	maximum = 0.014 (at node 11)
Injected flit rate average = 0.00966667
	minimum = 0.006 (at node 3)
	maximum = 0.0126667 (at node 5)
Accepted flit rate average= 0.009875
	minimum = 0.006 (at node 4)
	maximum = 0.014 (at node 11)
Injected packet length average = 1
Accepted packet length average = 1
Total in-flight flits = 1 (1 measured)
latency change    = 0.00238411
throughput change = 0.00632911
Class 0:
Packet latency average = 21.3125
	minimum = 7
	maximum = 57
Network latency average = 21.3125
	minimum = 7
	maximum = 57
Slowest packet = 2415
Flit latency average = 21.319
	minimum = 7
	maximum = 57
Slowest flit = 2415
Fragmentation average = 0
	minimum = 0
	maximum = 0
Injected packet rate average = 0.0101563
	minimum = 0.0065 (at node 3)
	maximum = 0.012 (at node 1)
Accepted packet rate average = 0.0101875
	minimum = 0.007 (at node 4)
	maximum = 0.0165 (at node 11)
Injected flit rate average = 0.0101563
	minimum = 0.0065 (at node 3)
	maximum = 0.012 (at node 1)
Accepted flit rate average= 0.0101875
	minimum = 0.007 (at node 4)
	maximum = 0.0165 (at node 11)
Injected packet length average = 1
Accepted packet length average = 1
Total in-flight flits = 5 (5 measured)
latency change    = 0.00544617
throughput change = 0.0306748
Class 0:
Packet latency average = 21.2293
	minimum = 7
	maximum = 57
Network latency average = 21.2293
	minimum = 7
	maximum = 57
Slowest packet = 2415
Flit latency average = 21.2356
	minimum = 7
	maximum = 57
Slowest flit = 2415
Fragmentation average = 0
	minimum = 0
	maximum = 0
Injected packet rate average = 0.0103
	minimum = 0.008 (at node 14)
	maximum = 0.0128 (at node 1)
Accepted packet rate average = 0.0104
	minimum = 0.0068 (at node 9)
	maximum = 0.0144 (at node 11)
Injected flit rate average = 0.0103
	minimum = 0.008 (at node 14)
	maximum = 0.0128 (at node 1)
Accepted flit rate average= 0.0104
	minimum = 0.0068 (at node 9)
	maximum = 0.0144 (at node 11)
Injected packet length average = 1
Accepted packet length average = 1
Total in-flight flits = 2 (2 measured)
latency change    = 0.00392061
throughput change = 0.0204327
Draining all recorded packets ...
Draining remaining packets ...
Time taken is 4010 cycles
Class 0:
Packet latency average = 21.4933
	minimum = 7
	maximum = 57
Network latency average = 21.4933
	minimum = 7
	maximum = 57
Slowest packet = 2699
Flit latency average = 21.4933
	minimum = 7
	maximum = 57
Slowest flit = 2699
Fragmentation average = 0
	minimum = 0
	maximum = 0
Injected packet rate average = 0.009875
	minimum = 0.004 (at node 7)
	maximum = 0.016 (at node 3)
Accepted packet rate average = 0.009375
	minimum = 0.002 (at node 1)
	maximum = 0.018 (at node 13)
Injected flit rate average = 0.009875
	minimum = 0.004 (at node 7)
	maximum = 0.016 (at node 3)
Accepted flit rate average= 0.009375
	minimum = 0.002 (at node 1)
	maximum = 0.018 (at node 13)
Injected packet length average = 1
Accepted packet length average = 1
Total in-flight flits = 4 (0 measured)
latency change    = 1
throughput change = 1
Class 0:
Packet latency average = 22.4507
	minimum = 7
	maximum = 57
Network latency average = 22.4507
	minimum = 7
	maximum = 57
Slowest packet = 2699
Flit latency average = 22.4507
	minimum = 7
	maximum = 57
Slowest flit = 2699
Fragmentation average = 0
	minimum = 0
	maximum = 0
Injected packet rate average = 0.0089375
	minimum = 0.002 (at node 7)
	maximum = 0.015 (at node 8)
Accepted packet rate average = 0.008875
	minimum = 0.004 (at node 1)
	maximum = 0.015 (at node 14)
Injected flit rate average = 0.0089375
	minimum = 0.002 (at node 7)
	maximum = 0.015 (at node 8)
Accepted flit rate average= 0.008875
	minimum = 0.004 (at node 1)
	maximum = 0.015 (at node 14)
Injected packet length average = 1
Accepted packet length average = 1
Total in-flight flits = 1 (0 measured)
latency change    = 0.0426432
throughput change = 0.056338
Class 0:
Packet latency average = 21.2329
	minimum = 7
	maximum = 52
Network latency average = 21.2329
	minimum = 7
	maximum = 52
Slowest packet = 2814
Flit latency average = 21.2329
	minimum = 7
	maximum = 52
Slowest flit = 2814
Fragmentation average = 0
	minimum = 0
	maximum = 0
Injected packet rate average = 0.00925
	minimum = 0.002 (at node 8)
	maximum = 0.02 (at node 6)
Accepted packet rate average = 0.009125
	minimum = 0 (at node 15)
	maximum = 0.018 (at node 9)
Injected flit rate average = 0.00925
	minimum = 0.002 (at node 8)
	maximum = 0.02 (at node 6)
Accepted flit rate average= 0.009125
	minimum = 0 (at node 15)
	maximum = 0.018 (at node 9)
Injected packet length average = 1
Accepted packet length average = 1
Total in-flight flits = 2 (0 measured)
latency change    = 0.0573557
throughput change = 0.0273973
Warmed up ...Time used is 1500 cycles
Class 0:
Packet latency average = 24.0139
	minimum = 7
	maximum = 57
Network latency average = 24.0139
	minimum = 7
	maximum = 57
Slowest packet = 2886
Flit latency average = 23.8243
	minimum = 7
	maximum = 57
Slowest flit = 2886
Fragmentation average = 0
	minimum = 0
	maximum = 0
Injected packet rate average = 0.00975
	minimum = 0.004 (at node 3)
	maximum = 0.016 (at node 0)
Accepted packet rate average = 0.00925
	minimum = 0.002 (at node 6)
	maximum = 0.016 (at node 2)
Injected flit rate average = 0.00975
	minimum = 0.004 (at node 3)
	maximum = 0.016 (at node 0)
Accepted flit rate average= 0.00925
	minimum = 0.002 (at node 6)
	maximum = 0.016 (at node 2)
Injected packet length average = 1
Accepted packet length average = 1
Total in-flight flits = 6 (6 measured)
latency change    = 0.115808
throughput change = 0.0135135
Class 0:
Packet latency average = 23.007
	minimum = 7
	maximum = 57
Network latency average = 23.007
	minimum = 7
	maximum = 57
Slowest packet = 2886
Flit latency average = 22.9236
	minimum = 7
	maximum = 57
Slowest flit = 2886
Fragmentation average = 0
	minimum = 0
	maximum = 0
Injected packet rate average = 0.008875
	minimum = 0.005 (at node 10)
	maximum = 0.015 (at node 0)
Accepted packet rate average = 0.009
	minimum = 0.004 (at node 9)
	maximum = 0.015 (at node 2)
Injected flit rate average = 0.008875
	minimum = 0.005 (at node 10)
	maximum = 0.015 (at node 0)
Accepted flit rate average= 0.009
	minimum = 0.004 (at node 9)
	maximum = 0.015 (at node 2)
Injected packet length average = 1
Accepted packet length average = 1
Total in-flight flits = 0 (0 measured)
latency change    = 0.0437625
throughput change = 0.0277778
Class 0:
Packet latency average = 22.1122
	minimum = 7
	maximum = 57
Network latency average = 22.1122
	minimum = 7
	maximum = 57
Slowest packet = 2886
Flit latency average = 22.0628
	minimum = 7
	maximum = 57
Slowest flit = 2886
Fragmentation average = 0
	minimum = 0
	maximum = 0
Injected packet rate average = 0.00870833
	minimum = 0.00466667 (at node 10)
	maximum = 0.0126667 (at node 2)
Accepted packet rate average = 0.008625
	minimum = 0.00466667 (at node 9)
	maximum = 0.0146667 (at node 11)
Injected flit rate average = 0.00870833
	minimum = 0.00466667 (at node 10)
	maximum = 0.0126667 (at node 2)
Accepted flit rate average= 0.008625
	minimum = 0.00466667 (at node 9)
	maximum = 0.0146667 (at node 11)
Injected packet length average = 1
Accepted packet length average = 1
Total in-flight flits = 4 (4 measured)
latency change    = 0.0404685
throughput change = 0.0434783
Class 0:
Packet latency average = 22.3798
	minimum = 7
	maximum = 57
Network latency average = 22.3798
	minimum = 7
	maximum = 57
Slowest packet = 2886
Flit latency average = 22.3426
	minimum = 7
	maximum = 57
Slowest flit = 2886
Fragmentation average = 0
	minimum = 0
	maximum = 0
Injected packet rate average = 0.009125
	minimum = 0.0045 (at node 10)
	maximum = 0.014 (at node 12)
Accepted packet rate average = 0.00903125
	minimum = 0.006 (at node 6)
	maximum = 0.0135 (at node 11)
Injected flit rate average = 0.009125
	minimum = 0.0045 (at node 10)
	maximum = 0.014 (at node 12)
Accepted flit rate average= 0.00903125
	minimum = 0.006 (at node 6)
	maximum = 0.0135 (at node 11)
Injected packet length average = 1
Accepted packet length average = 1
Total in-flight flits = 5 (5 measured)
latency change    = 0.011957
throughput change = 0.0449827
Draining all recorded packets ...
Draining remaining packets ...
Time taken is 3552 cycles
Class 0:
Packet latency average = 22.1571
	minimum = 7
	maximum = 52
Network latency average = 22.1571
	minimum = 7
	maximum = 52
Slowest packet = 3181
Flit latency average = 22.1571
	minimum = 7
	maximum = 52
Slowest flit = 3181
Fragmentation average = 0
	minimum = 0
	maximum = 0
Injected packet rate average = 0.009125
	minimum = 0.002 (at node 3)
	maximum = 0.016 (at node 14)
Accepted packet rate average = 0.00875
	minimum = 0.002 (at node 0)
	maximum = 0.018 (at node 4)
Injected flit rate average = 0.009125
	minimum = 0.002 (at node 3)
	maximum = 0.016 (at node 14)
Accepted flit rate average= 0.00875
	minimum = 0.002 (at node 0)
	maximum = 0.018 (at node 4)
Injected packet length average = 1
Accepted packet length average = 1
Total in-flight flits = 3 (0 measured)
latency change    = 1
throughput change = 1
Class 0:
Packet latency average = 22.994
	minimum = 7
	maximum = 63
Network latency average = 22.994
	minimum = 7
	maximum = 63
Slowest packet = 3230
Flit latency average = 22.994
	minimum = 7
	maximum = 63
Slowest flit = 3230
Fragmentation average = 0
	minimum = 0
	maximum = 0
Injected packet rate average = 0.0108125
	minimum = 0.007 (at node 3)
	maximum = 0.016 (at node 15)
Accepted packet rate average = 0.0104375
	minimum = 0.005 (at node 11)
	maximum = 0.016 (at node 3)
Injected flit rate average = 0.0108125
	minimum = 0.007 (at node 3)
	maximum = 0.016 (at node 15)
Accepted flit rate average= 0.0104375
	minimum = 0.005 (at node 11)
	maximum = 0.016 (at node 3)
Injected packet length average = 1
Accepted packet length average = 1
Total in-flight flits = 6 (0 measured)
latency change    = 0.0363951
throughput change = 0.161677
Class 0:
Packet latency average = 21.2824
	minimum = 7
	maximum = 47
Network latency average = 21.2824
	minimum = 7
	maximum = 47
Slowest packet = 3361
Flit latency average = 21.2824
	minimum = 7
	maximum = 47
Slowest flit = 3361
Fragmentation average = 0
	minimum = 0
	maximum = 0
Injected packet rate average = 0.0105
	minimum = 0.004 (at node 13)
	maximum = 0.022 (at node 3)
Accepted packet rate average = 0.010625
	minimum = 0.006 (at node 7)
	maximum = 0.022 (at node 0)
Injected flit rate average = 0.0105
	minimum = 0.004 (at node 13)
	maximum = 0.022 (at node 3)
Accepted flit rate average= 0.010625
	minimum = 0.006 (at node 7)
	maximum = 0.022 (at node 0)
Injected packet length average = 1
Accepted packet length average = 1
Total in-flight flits = 5 (0 measured)
latency change    = 0.0804262
throughput change = 0.0176471
Warmed up ...Time used is 1500 cycles
Class 0:
Packet latency average = 20.7564
	minimum = 7
	maximum = 52
Network latency average = 20.7564
	minimum = 7
	maximum = 52
Slowest packet = 3485
Flit latency average = 20.9518
	minimum = 7
	maximum = 52
Slowest flit = 3485
Fragmentation average = 0
	minimum = 0
	maximum = 0
Injected packet rate average = 0.010125
	minimum = 0.004 (at node 9)
	maximum = 0.02 (at node 7)
Accepted packet rate average = 0.010375
	minimum = 0.002 (at node 4)
	maximum = 0.022 (at node 5)
Injected flit rate average = 0.010125
	minimum = 0.004 (at node 9)
	maximum = 0.02 (at node 7)
Accepted flit rate average= 0.010375
	minimum = 0.002 (at node 4)
	maximum = 0.022 (at node 5)
Injected packet length average = 1
Accepted packet length average = 1
Total in-flight flits = 3 (3 measured)
latency change    = 0.0253388
throughput change = 0.0240964
Class 0:
Packet latency average = 21.6173
	minimum = 7
	maximum = 52
Network latency average = 21.6173
	minimum = 7
	maximum = 52
Slowest packet = 3485
Flit latency average = 21.6886
	minimum = 7
	maximum = 52
Slowest flit = 3485
Fragmentation average = 0
	minimum = 0
	maximum = 0
Injected packet rate average = 0.010125
	minimum = 0.005 (at node 12)
	maximum = 0.015 (at node 7)
Accepted packet rate average = 0.0104375
	minimum = 0.004 (at node 0)
	maximum = 0.019 (at node 5)
Injected flit rate average = 0.010125
	minimum = 0.005 (at node 12)
	maximum = 0.015 (at node 7)
Accepted flit rate average= 0.0104375
	minimum = 0.004 (at node 0)
	maximum = 0.019 (at node 5)
Injected packet length average = 1
Accepted packet length average = 1
Total in-flight flits = 0 (0 measured)
latency change    = 0.0398234
throughput change = 0.00598802
Class 0:
Packet latency average = 21.1883
	minimum = 7
	maximum = 52
Network latency average = 21.1883
	minimum = 7
	maximum = 52
Slowest packet = 3485
Flit latency average = 21.2459
	minimum = 7
	maximum = 52
Slowest flit = 3485
Fragmentation average = 0
	minimum = 0
	maximum = 0
Injected packet rate average = 0.0100417
	minimum = 0.00533333 (at node 10)
	maximum = 0.0153333 (at node 7)
Accepted packet rate average = 0.0101667
	minimum = 0.006 (at node 0)
	maximum = 0.0153333 (at node 5)
Injected flit rate average = 0.0100417
	minimum = 0.00533333 (at node 10)
	maximum = 0.0153333 (at node 7)
Accepted flit rate average= 0.0101667
	minimum = 0.006 (at node 0)
	maximum = 0.0153333 (at node 5)
Injected packet length average = 1
Accepted packet length average = 1
Total in-flight flits = 2 (2 measured)
latency change    = 0.020247
throughput change = 0.0266393
Draining all recorded packets ...
Draining remaining packets ...
Time taken is 3047 cycles
Class 0:
Packet latency average = 22.7711
	minimum = 7
	maximum = 56
Network latency average = 22.7711
	minimum = 7
	maximum = 56
Slowest packet = 3675
Flit latency average = 22.7711
	minimum = 7
	maximum = 56
Slowest flit = 3675
Fragmentation average = 0
	minimum = 0
	maximum = 0
Injected packet rate average = 0.010625
	minimum = 0.004 (at node 1)
	maximum = 0.018 (at node 12)
Accepted packet rate average = 0.010375
	minimum = 0.002 (at node 12)
	maximum = 0.018 (at node 6)
Injected flit rate average = 0.010625
	minimum = 0.004 (at node 1)
	maximum = 0.018 (at node 12)
Accepted flit rate average= 0.010375
	minimum = 0.002 (at node 12)
	maximum = 0.018 (at node 6)
Injected packet length average = 1
Accepted packet length average = 1
Total in-flight flits = 2 (0 measured)
latency change    = 1
throughput change = 1
Class 0:
Packet latency average = 22.195
	minimum = 7
	maximum = 57
Network latency average = 22.195
	minimum = 7
	maximum = 57
Slowest packet = 3776
Flit latency average = 22.195
	minimum = 7
	maximum = 57
Slowest flit = 3776
Fragmentation average = 0
	minimum = 0
	maximum = 0
Injected packet rate average = 0.0101875
	minimum = 0.003 (at node 1)
	maximum = 0.016 (at node 12)
Accepted packet rate average = 0.0099375
	minimum = 0.005 (at node 8)
	maximum = 0.015 (at node 2)
Injected flit rate average = 0.0101875
	minimum = 0.003 (at node 1)
	maximum = 0.016 (at node 12)
Accepted flit rate average= 0.0099375
	minimum = 0.005 (at node 8)
	maximum = 0.015 (at node 2)
Injected packet length average = 1
Accepted packet length average = 1
Total in-flight flits = 4 (0 measured)
latency change    = 0.025957
throughput change = 0.0440252
Class 0:
Packet latency average = 24.9841
	minimum = 7
	maximum = 54
Network latency average = 24.9841
	minimum = 7
	maximum = 54
Slowest packet = 3861
Flit latency average = 24.9841
	minimum = 7
	maximum = 54
Slowest flit = 3861
Fragmentation average = 0
	minimum = 0
	maximum = 0
Injected packet rate average = 0.007625
	minimum = 0 (at node 0)
	maximum = 0.016 (at node 4)
Accepted packet rate average = 0.007875
	minimum = 0.002 (at node 5)
	maximum = 0.026 (at node 7)
Injected flit rate average = 0.007625
	minimum = 0 (at node 0)
	maximum = 0.016 (at node 4)
Accepted flit rate average= 0.007875
	minimum = 0.002 (at node 5)
	maximum = 0.026 (at node 7)
Injected packet length average = 1
Accepted packet length average = 1
Total in-flight flits = 2 (0 measured)
latency change    = 0.111637
throughput change = 0.261905
Warmed up ...Time used is 1500 cycles
Class 0:
Packet latency average = 20.7121
	minimum = 7
	maximum = 42
Network latency average = 20.7121
	minimum = 7
	maximum = 42
Slowest packet = 3892
Flit latency average = 21.4118
	minimum = 7
	maximum = 57
Slowest flit = 3877
Fragmentation average = 0
	minimum = 0
	maximum = 0
Injected packet rate average = 0.008625
	minimum = 0.002 (at node 14)
	maximum = 0.016 (at node 11)
Accepted packet rate average = 0.0085
	minimum = 0.004 (at node 0)
	maximum = 0.014 (at node 6)
Injected flit rate average = 0.008625
	minimum = 0.002 (at node 14)
	maximum = 0.016 (at node 11)
Accepted flit rate average= 0.0085
	minimum = 0.004 (at node 0)
	maximum = 0.014 (at node 6)
Injected packet length average = 1
Accepted packet length average = 1
Total in-flight flits = 3 (3 measured)
latency change    = 0.206256
throughput change = 0.0735294
Class 0:
Packet latency average = 21.0759
	minimum = 7
	maximum = 47
Network latency average = 21.0759
	minimum = 7
	maximum = 47
Slowest packet = 4007
Flit latency average = 21.3946
	minimum = 7
	maximum = 57
Slowest flit = 3877
Fragmentation average = 0
	minimum = 0
	maximum = 0
Injected packet rate average = 0.00925
	minimum = 0.005 (at node 5)
	maximum = 0.014 (at node 15)
Accepted packet rate average = 0.0091875
	minimum = 0.003 (at node 10)
	maximum = 0.012 (at node 0)
Injected flit rate average = 0.00925
	minimum = 0.005 (at node 5)
	maximum = 0.014 (at node 15)
Accepted flit rate average= 0.0091875
	minimum = 0.003 (at node 10)
	maximum = 0.012 (at node 0)
Injected packet length average = 1
Accepted packet length average = 1
Total in-flight flits = 3 (3 measured)
latency change    = 0.0172586
throughput change = 0.0748299
Class 0:
Packet latency average = 21.3514
	minimum = 7
	maximum = 57
Network latency average = 21.3514
	minimum = 7
	maximum = 57
Slowest packet = 4091
Flit latency average = 21.558
	minimum = 7
	maximum = 57
Slowest flit = 3877
Fragmentation average = 0
	minimum = 0
	maximum = 0
Injected packet rate average = 0.00933333
	minimum = 0.00333333 (at node 5)
	maximum = 0.0133333 (at node 12)
Accepted packet rate average = 0.00933333
	minimum = 0.00666667 (at node 3)
	maximum = 0.0126667 (at node 0)
Injected flit rate average = 0.00933333
	minimum = 0.00333333 (at node 5)
	maximum = 0.0133333 (at node 12)
Accepted flit rate average= 0.00933333
	minimum = 0.00666667 (at node 3)
	maximum = 0.0126667 (at node 0)
Injected packet length average = 1
Accepted packet length average = 1
Total in-flight flits = 2 (2 measured)
latency change    = 0.0129027
throughput change = 0.015625
Class 0:
Packet latency average = 21.0388
	minimum = 7
	maximum = 57
Network latency average = 21.0388
	minimum = 7
	maximum = 57
Slowest packet = 4091
Flit latency average = 21.1897
	minimum = 7
	maximum = 57
Slowest flit = 3877
Fragmentation average = 0
	minimum = 0
	maximum = 0
Injected packet rate average = 0.00978125
	minimum = 0.004 (at node 5)
	maximum = 0.013 (at node 15)
Accepted packet rate average = 0.00971875
	minimum = 0.0075 (at node 14)
	maximum = 0.0125 (at node 9)
Injected flit rate average = 0.00978125
	minimum = 0.004 (at node 5)
	maximum = 0.013 (at node 15)
Accepted flit rate average= 0.00971875
	minimum = 0.0075 (at node 14)
	maximum = 0.0125 (at node 9)
Injected packet length average = 1
Accepted packet length average = 1
Total in-flight flits = 4 (4 measured)
latency change    = 0.0148543
throughput change = 0.039657
Class 0:
Packet latency average = 21.4444
	minimum = 7
	maximum = 57
Network latency average = 21.4444
	minimum = 7
	maximum = 57
Slowest packet = 4091
Flit latency average = 21.5603
	minimum = 7
	maximum = 57
Slowest flit = 3877
Fragmentation average = 0
	minimum = 0
	maximum = 0
Injected packet rate average = 0.009975
	minimum = 0.0044 (at node 5)
	maximum = 0.0132 (at node 15)
Accepted packet rate average = 0.00995
	minimum = 0.0072 (at node 14)
	maximum = 0.014 (at node 0)
Injected flit rate average = 0.009975
	minimum = 0.0044 (at node 5)
	maximum = 0.0132 (at node 15)
Accepted flit rate average= 0.00995
	minimum = 0.0072 (at node 14)
	maximum = 0.014 (at node 0)
Injected packet length average = 1
Accepted packet length average = 1
Total in-flight flits = 3 (3 measured)
latency change    = 0.0189144
throughput change = 0.0232412
Draining all recorded packets ...
Draining remaining packets ...
Time taken is 4080 cycles
Class 0:
Packet latency average = 22.1538
	minimum = 7
	maximum = 67
Network latency average = 22.1538
	minimum = 7
	maximum = 67
Slowest packet = 4349
Flit latency average = 22.1538
	minimum = 7
	maximum = 67
Slowest flit = 4349
Fragmentation average = 0
	minimum = 0
	maximum = 0
Injected packet rate average = 0.009875
	minimum = 0.006 (at node 8)
	maximum = 0.016 (at node 10)
Accepted packet rate average = 0.00975
	minimum = 0.002 (at node 1)
	maximum = 0.018 (at node 0)
Injected flit rate average = 0.009875
	minimum = 0.006 (at node 8)
	maximum = 0.016 (at node 10)
Accepted flit rate average= 0.00975
	minimum = 0.002 (at node 1)
	maximum = 0.018 (at node 0)
Injected packet length average = 1
Accepted packet length average = 1
Total in-flight flits = 1 (0 measured)
latency change    = 1
throughput change = 1
Class 0:
Packet latency average = 21.2209
	minimum = 7
	maximum = 67
Network latency average = 21.2209
	minimum = 7
	maximum = 67
Slowest packet = 4349
Flit latency average = 21.2209
	minimum = 7
	maximum = 67
Slowest flit = 4349
Fragmentation average = 0
	minimum = 0
	maximum = 0
Injected packet rate average = 0.010875
	minimum = 0.007 (at node 8)
	maximum = 0.015 (at node 15)
Accepted packet rate average = 0.01075
	minimum = 0.006 (at node 7)
	maximum = 0.013 (at node 0)
Injected flit rate average = 0.010875
	minimum = 0.007 (at node 8)
	maximum = 0.015 (at node 15)
Accepted flit rate average= 0.01075
	minimum = 0.006 (at node 7)
	maximum = 0.013 (at node 0)
Injected packet length average = 1
Accepted packet length average = 1
Total in-flight flits = 2 (0 measured)
latency change    = 0.0439621
throughput change = 0.0930233
Class 0:
Packet latency average = 22.038
	minimum = 7
	maximum = 47
Network latency average = 22.038
	minimum = 7
	maximum = 47
Slowest packet = 4492
Flit latency average = 22.038
	minimum = 7
	maximum = 47
Slowest flit = 4492
Fragmentation average = 0
	minimum = 0
	maximum = 0
Injected packet rate average = 0.009875
	minimum = 0.002 (at node 7)
	maximum = 0.016 (at node 2)
Accepted packet rate average = 0.009875
	minimum = 0.004 (at node 10)
	maximum = 0.022 (at node 7)
Injected flit rate average = 0.009875
	minimum = 0.002 (at node 7)
	maximum = 0.016 (at node 2)
Accepted flit rate average= 0.009875
	minimum = 0.004 (at node 10)
	maximum = 0.022 (at node 7)
Injected packet length average = 1
Accepted packet length average = 1
Total in-flight flits = 2 (0 measured)
latency change    = 0.0370744
throughput change = 0.0886076
Warmed up ...Time used is 1500 cycles
Class 0:
Packet latency average = 20.8842
	minimum = 7
	maximum = 55
Network latency average = 20.8842
	minimum = 7
	maximum = 55
Slowest packet = 4559
Flit latency average = 20.8557
	minimum = 7
	maximum = 55
Slowest flit = 4559
Fragmentation average = 0
	minimum = 0
	maximum = 0
Injected packet rate average = 0.012875
	minimum = 0.004 (at node 6)
	maximum = 0.024 (at node 15)
Accepted packet rate average = 0.012125
	minimum = 0.006 (at node 11)
	maximum = 0.024 (at node 6)
Injected flit rate average = 0.012875
	minimum = 0.004 (at node 6)
	maximum = 0.024 (at node 15)
Accepted flit rate average= 0.012125
	minimum = 0.006 (at node 11)
	maximum = 0.024 (at node 6)
Injected packet length average = 1
Accepted packet length average = 1
Total in-flight flits = 8 (8 measured)
latency change    = 0.0552458
throughput change = 0.185567
Class 0:
Packet latency average = 21.2426
	minimum = 7
	maximum = 55
Network latency average = 21.2426
	minimum = 7
	maximum = 55
Slowest packet = 4559
Flit latency average = 21.2222
	minimum = 7
	maximum = 55
Slowest flit = 4559
Fragmentation average = 0
	minimum = 0
	maximum = 0
Injected packet rate average = 0.010875
	minimum = 0.005 (at node 5)
	maximum = 0.017 (at node 14)
Accepted packet rate average = 0.0106875
	minimum = 0.007 (at node 9)
	maximum = 0.015 (at node 6)
Injected flit rate average = 0.010875
	minimum = 0.005 (at node 5)
	maximum = 0.017 (at node 14)
Accepted flit rate average= 0.0106875
	minimum = 0.007 (at node 9)
	maximum = 0.015 (at node 6)
Injected packet length average = 1
Accepted packet length average = 1
Total in-flight flits = 5 (5 measured)
latency change    = 0.0168714
throughput change = 0.134503
Class 0:
Packet latency average = 21.624
	minimum = 7
	maximum = 57
Network latency average = 21.624
	minimum = 7
	maximum = 57
Slowest packet = 4755
Flit latency average = 21.6071
	minimum = 7
	maximum = 57
Slowest flit = 4755
Fragmentation average = 0
	minimum = 0
	maximum = 0
Injected packet rate average = 0.0105
	minimum = 0.00533333 (at node 5)
	maximum = 0.0146667 (at node 4)
Accepted packet rate average = 0.0105
	minimum = 0.00666667 (at node 14)
	maximum = 0.016 (at node 6)
Injected flit rate average = 0.0105
	minimum = 0.00533333 (at node 5)
	maximum = 0.0146667 (at node 4)
Accepted flit rate average= 0.0105
	minimum = 0.00666667 (at node 14)
	maximum = 0.016 (at node 6)
Injected packet length average = 1
Accepted packet length average = 1
Total in-flight flits = 2 (2 measured)
latency change    = 0.0176376
throughput change = 0.0178571
Class 0:
Packet latency average = 21.3373
	minimum = 7
	maximum = 57
Network latency average = 21.3373
	minimum = 7
	maximum = 57
Slowest packet = 4755
Flit latency average = 21.3265
	minimum = 7
	maximum = 57
Slowest flit = 4755
Fragmentation average = 0
	minimum = 0
	maximum = 0
Injected packet rate average = 0.01075
	minimum = 0.0065 (at node 13)
	maximum = 0.015 (at node 4)
Accepted packet rate average = 0.010625
	minimum = 0.0075 (at node 13)
	maximum = 0.014 (at node 6)
Injected flit rate average = 0.01075
	minimum = 0.0065 (at node 13)
	maximum = 0.015 (at node 4)
Accepted flit rate average= 0.010625
	minimum = 0.0075 (at node 13)
	maximum = 0.014 (at node 6)
Injected packet length average = 1
Accepted packet length average = 1
Total in-flight flits = 6 (6 measured)
latency change    = 0.0134376
throughput change = 0.0117647
Class 0:
Packet latency average = 21.5122
	minimum = 7
	maximum = 66
Network latency average = 21.5122
	minimum = 7
	maximum = 66
Slowest packet = 4896
Flit latency average = 21.5024
	minimum = 7
	maximum = 66
Slowest flit = 4896
Fragmentation average = 0
	minimum = 0
	maximum = 0
Injected packet rate average = 0.01035
	minimum = 0.0072 (at node 5)
	maximum = 0.0136 (at node 14)
Accepted packet rate average = 0.0103
	minimum = 0.0076 (at node 13)
	maximum = 0.0136 (at node 6)
Injected flit rate average = 0.01035
	minimum = 0.0072 (at node 5)
	maximum = 0.0136 (at node 14)
Accepted flit rate average= 0.0103
	minimum = 0.0076 (at node 13)
	maximum = 0.0136 (at node 6)
Injected packet length average = 1
Accepted packet length average = 1
Total in-flight flits = 4 (4 measured)
latency change    = 0.00813106
throughput change = 0.0315534
Draining all recorded packets ...
Draining remaining packets ...
Time taken is 4056 cycles
Class 0:
Packet latency average = 21.3049
	minimum = 7
	maximum = 52
Network latency average = 21.3049
	minimum = 7
	maximum = 52
Slowest packet = 4983
Flit latency average = 21.3049
	minimum = 7
	maximum = 52
Slowest flit = 4983
Fragmentation average = 0
	minimum = 0
	maximum = 0
Injected packet rate average = 0.01075
	minimum = 0.004 (at node 9)
	maximum = 0.02 (at node 12)
Accepted packet rate average = 0.01025
	minimum = 0.002 (at node 14)
	maximum = 0.018 (at node 11)
Injected flit rate average = 0.01075
	minimum = 0.004 (at node 9)
	maximum = 0.02 (at node 12)
Accepted flit rate average= 0.01025
	minimum = 0.002 (at node 14)
	maximum = 0.018 (at node 11)
Injected packet length average = 1
Accepted packet length average = 1
Total in-flight flits = 4 (0 measured)
latency change    = 1
throughput change = 1
Class 0:
Packet latency average = 21.9728
	minimum = 7
	maximum = 53
Network latency average = 21.9728
	minimum = 7
	maximum = 53
Slowest packet = 5046
Flit latency average = 21.9728
	minimum = 7
	maximum = 53
Slowest flit = 5046
Fragmentation average = 0
	minimum = 0
	maximum = 0
Injected packet rate average = 0.0094375
	minimum = 0.005 (at node 7)
	maximum = 0.014 (at node 14)
Accepted packet rate average = 0.0091875
	minimum = 0.004 (at node 14)
	maximum = 0.012 (at node 7)
Injected flit rate average = 0.0094375
	minimum = 0.005 (at node 7)
	maximum = 0.014 (at node 14)
Accepted flit rate average= 0.0091875
	minimum = 0.004 (at node 14)
	maximum = 0.012 (at node 7)
Injected packet length average = 1
Accepted packet length average = 1
Total in-flight flits = 4 (0 measured)
latency change    = 0.0303972
throughput change = 0.115646
Class 0:
Packet latency average = 22.6404
	minimum = 7
	maximum = 64
Network latency average = 22.6404
	minimum = 7
	maximum = 64
Slowest packet = 5120
Flit latency average = 22.6404
	minimum = 7
	maximum = 64
Slowest flit = 5120
Fragmentation average = 0
	minimum = 0
	maximum = 0
Injected packet rate average = 0.011125
	minimum = 0.002 (at node 0)
	maximum = 0.018 (at node 3)
Accepted packet rate average = 0.011125
	minimum = 0.004 (at node 12)
	maximum = 0.022 (at node 0)
Injected flit rate average = 0.011125
	minimum = 0.002 (at node 0)
	maximum = 0.018 (at node 3)
Accepted flit rate average= 0.011125
	minimum = 0.004 (at node 12)
	maximum = 0.022 (at node 0)
Injected packet length average = 1
Accepted packet length average = 1
Total in-flight flits = 4 (0 measured)
latency change    = 0.0294897
throughput change = 0.174157
Warmed up ...Time used is 1500 cycles
Class 0:
Packet latency average = 21.2558
	minimum = 7
	maximum = 52
Network latency average = 21.2558
	minimum = 7
	maximum = 52
Slowest packet = 5264
Flit latency average = 21.6222
	minimum = 7
	maximum = 52
Slowest flit = 5190
Fragmentation average = 0
	minimum = 0
	maximum = 0
Injected packet rate average = 0.011
	minimum = 0.004 (at node 0)
	maximum = 0.02 (at node 15)
Accepted packet rate average = 0.01125
	minimum = 0.006 (at node 5)
	maximum = 0.024 (at node 10)
Injected flit rate average = 0.011
	minimum = 0.004 (at node 0)
	maximum = 0.02 (at node 15)
Accepted flit rate average= 0.01125
	minimum = 0.006 (at node 5)
	maximum = 0.024 (at node 10)
Injected packet length average = 1
Accepted packet length average = 1
Total in-flight flits = 2 (2 measured)
latency change    = 0.0651415
throughput change = 0.0111111
Class 0:
Packet latency average = 21.6564
	minimum = 7
	maximum = 52
Network latency average = 21.6564
	minimum = 7
	maximum = 52
Slowest packet = 5264
Flit latency average = 21.8443
	minimum = 7
	maximum = 52
Slowest flit = 5190
Fragmentation average = 0
	minimum = 0
	maximum = 0
Injected packet rate average = 0.010625
	minimum = 0.003 (at node 0)
	maximum = 0.016 (at node 6)
Accepted packet rate average = 0.0104375
	minimum = 0.006 (at node 5)
	maximum = 0.016 (at node 12)
Injected flit rate average = 0.010625
	minimum = 0.003 (at node 0)
	maximum = 0.016 (at node 6)
Accepted flit rate average= 0.0104375
	minimum = 0.006 (at node 5)
	maximum = 0.016 (at node 12)
Injected packet length average = 1
Accepted packet length average = 1
Total in-flight flits = 7 (7 measured)
latency change    = 0.0184992
throughput change = 0.0778443
Class 0:
Packet latency average = 22.1752
	minimum = 7
	maximum = 52
Network latency average = 22.1752
	minimum = 7
	maximum = 52
Slowest packet = 5264
Flit latency average = 22.2983
	minimum = 7
	maximum = 52
Slowest flit = 5190
Fragmentation average = 0
	minimum = 0
	maximum = 0
Injected packet rate average = 0.00983333
	minimum = 0.006 (at node 9)
	maximum = 0.0146667 (at node 6)
Accepted packet rate average = 0.00991667
	minimum = 0.00666667 (at node 4)
	maximum = 0.0133333 (at node 2)
Injected flit rate average = 0.00983333
	minimum = 0.006 (at node 9)
	maximum = 0.0146667 (at node 6)
Accepted flit rate average= 0.00991667
	minimum = 0.00666667 (at node 4)
	maximum = 0.0133333 (at node 2)
Injected packet length average = 1
Accepted packet length average = 1
Total in-flight flits = 2 (2 measured)
latency change    = 0.0233942
throughput change = 0.052521
Class 0:
Packet latency average = 22.1297
	minimum = 7
	maximum = 57
Network latency average = 22.1297
	minimum = 7
	maximum = 57
Slowest packet = 5460
Flit latency average = 22.2219
	minimum = 7
	maximum = 57
Slowest flit = 5460
Fragmentation average = 0
	minimum = 0
	maximum = 0
Injected packet rate average = 0.0099375
	minimum = 0.0065 (at node 14)
	maximum = 0.0155 (at node 11)
Accepted packet rate average = 0.01
	minimum = 0.008 (at node 0)
	maximum = 0.013 (at node 7)
Injected flit rate average = 0.0099375
	minimum = 0.0065 (at node 14)
	maximum = 0.0155 (at node 11)
Accepted flit rate average= 0.01
	minimum = 0.008 (at node 0)
	maximum = 0.013 (at node 7)
Injected packet length average = 1
Accepted packet length average = 1
Total in-flight flits = 2 (2 measured)
latency change    = 0.00205456
throughput change = 0.00833333
Class 0:
Packet latency average = 21.7404
	minimum = 7
	maximum = 57
Network latency average = 21.7404
	minimum = 7
	maximum = 57
Slowest packet = 5460
Flit latency average = 21.8193
	minimum = 7
	maximum = 57
Slowest flit = 5460
Fragmentation average = 0
	minimum = 0
	maximum = 0
Injected packet rate average = 0.009825
	minimum = 0.0072 (at node 0)
	maximum = 0.0148 (at node 11)
Accepted packet rate average = 0.009825
	minimum = 0.0072 (at node 14)
	maximum = 0.0128 (at node 7)
Injected flit rate average = 0.009825
	minimum = 0.0072 (at node 0)
	maximum = 0.0148 (at node 11)
Accepted flit rate average= 0.009825
	minimum = 0.0072 (at node 14)
	maximum = 0.0128 (at node 7)
Injected packet length average = 1
Accepted packet length average = 1
Total in-flight flits = 4 (4 measured)
latency change    = 0.0179108
throughput change = 0.0178117
Class 0:
Packet latency average = 21.8898
	minimum = 7
	maximum = 57
Network latency average = 21.8898
	minimum = 7
	maximum = 57
Slowest packet = 5460
Flit latency average = 21.9538
	minimum = 7
	maximum = 57
Slowest flit = 5460
Fragmentation average = 0
	minimum = 0
	maximum = 0
Injected packet rate average = 0.00983333
	minimum = 0.00733333 (at node 12)
	maximum = 0.015 (at node 7)
Accepted packet rate average = 0.00991667
	minimum = 0.00733333 (at node 14)
	maximum = 0.0126667 (at node 9)
Injected flit rate average = 0.00983333
	minimum = 0.00733333 (at node 12)
	maximum = 0.015 (at node 7)
Accepted flit rate average= 0.00991667
	minimum = 0.00733333 (at node 14)
	maximum = 0.0126667 (at node 9)
Injected packet length average = 1
Accepted packet length average = 1
Total in-flight flits = 0 (0 measured)
latency change    = 0.00682831
throughput change = 0.0092437
Draining all recorded packets ...
Draining remaining packets ...
Time taken is 4504 cycles
Class 0:
Packet latency average = 20.5405
	minimum = 7
	maximum = 52
Network latency average = 20.5405
	minimum = 7
	maximum = 52
Slowest packet = 5716
Flit latency average = 20.5405
	minimum = 7
	maximum = 52
Slowest flit = 5716
Fragmentation average = 0
	minimum = 0
	maximum = 0
Injected packet rate average = 0.00975
	minimum = 0.002 (at node 0)
	maximum = 0.016 (at node 1)
Accepted packet rate average = 0.00925
	minimum = 0.004 (at node 10)
	maximum = 0.016 (at node 5)
Injected flit rate average = 0.00975
	minimum = 0.002 (at node 0)
	maximum = 0.016 (at node 1)
Accepted flit rate average= 0.00925
	minimum = 0.004 (at node 10)
	maximum = 0.016 (at node 5)
Injected packet length average = 1
Accepted packet length average = 1
Total in-flight flits = 4 (0 measured)
latency change    = 1
throughput change = 1
Class 0:
Packet latency average = 22.3423
	minimum = 7
	maximum = 52
Network latency average = 22.3423
	minimum = 7
	maximum = 52
Slowest packet = 5716
Flit latency average = 22.3423
	minimum = 7
	maximum = 52
Slowest flit = 5716
Fragmentation average = 0
	minimum = 0
	maximum = 0
Injected packet rate average = 0.0095
	minimum = 0.006 (at node 0)
	maximum = 0.014 (at node 3)
Accepted packet rate average = 0.0093125
	minimum = 0.005 (at node 1)
	maximum = 0.015 (at node 13)
Injected flit rate average = 0.0095
	minimum = 0.006 (at node 0)
	maximum = 0.014 (at node 3)
Accepted flit rate average= 0.0093125
	minimum = 0.005 (at node 1)
	maximum = 0.015 (at node 13)
Injected packet length average = 1
Accepted packet length average = 1
Total in-flight flits = 3 (0 measured)
latency change    = 0.0806427
throughput change = 0.00671141
Class 0:
Packet latency average = 21.4583
	minimum = 7
	maximum = 57
Network latency average = 21.4583
	minimum = 7
	maximum = 57
Slowest packet = 5853
Flit latency average = 21.4583
	minimum = 7
	maximum = 57
Slowest flit = 5853
Fragmentation average = 0
	minimum = 0
	maximum = 0
Injected packet rate average = 0.008875
	minimum = 0 (at node 6)
	maximum = 0.016 (at node 15)
Accepted packet rate average = 0.009
	minimum = 0.002 (at node 8)
	maximum = 0.016 (at node 3)
Injected flit rate average = 0.008875
	minimum = 0 (at node 6)
	maximum = 0.016 (at node 15)
Accepted flit rate average= 0.009
	minimum = 0.002 (at node 8)
	maximum = 0.016 (at node 3)
Injected packet length average = 1
Accepted packet length average = 1
Total in-flight flits = 2 (0 measured)
latency change    = 0.0411937
throughput change = 0.0347222
Warmed up ...Time used is 1500 cycles
Class 0:
Packet latency average = 21.4
	minimum = 7
	maximum = 58
Network latency average = 21.4
	minimum = 7
	maximum = 58
Slowest packet = 5903
Flit latency average = 21.7195
	minimum = 7
	maximum = 58
Slowest flit = 5903
Fragmentation average = 0
	minimum = 0
	maximum = 0
Injected packet rate average = 0.010375
	minimum = 0.002 (at node 15)
	maximum = 0.02 (at node 7)
Accepted packet rate average = 0.01025
	minimum = 0 (at node 9)
	maximum = 0.024 (at node 12)
Injected flit rate average = 0.010375
	minimum = 0.002 (at node 15)
	maximum = 0.02 (at node 7)
Accepted flit rate average= 0.01025
	minimum = 0 (at node 9)
	maximum = 0.024 (at node 12)
Injected packet length average = 1
Accepted packet length average = 1
Total in-flight flits = 3 (3 measured)
latency change    = 0.00272586
throughput change = 0.121951
Class 0:
Packet latency average = 21.8968
	minimum = 7
	maximum = 58
Network latency average = 21.8968
	minimum = 7
	maximum = 58
Slowest packet = 5903
Flit latency average = 22.0573
	minimum = 7
	maximum = 58
Slowest flit = 5903
Fragmentation average = 0
	minimum = 0
	maximum = 0
Injected packet rate average = 0.0100625
	minimum = 0.005 (at node 11)
	maximum = 0.017 (at node 7)
Accepted packet rate average = 0.0098125
	minimum = 0.005 (at node 9)
	maximum = 0.019 (at node 3)
Injected flit rate average = 0.0100625
	minimum = 0.005 (at node 11)
	maximum = 0.017 (at node 7)
Accepted flit rate average= 0.0098125
	minimum = 0.005 (at node 9)
	maximum = 0.019 (at node 3)
Injected packet length average = 1
Accepted packet length average = 1
Total in-flight flits = 6 (6 measured)
latency change    = 0.0226871
throughput change = 0.044586
Class 0:
Packet latency average = 22.2575
	minimum = 7
	maximum = 58
Network latency average = 22.2575
	minimum = 7
	maximum = 58
Slowest packet = 5903
Flit latency average = 22.3617
	minimum = 7
	maximum = 58
Slowest flit = 5903
Fragmentation average = 0
	minimum = 0
	maximum = 0
Injected packet rate average = 0.00979167
	minimum = 0.00666667 (at node 11)
	maximum = 0.0153333 (at node 7)
Accepted packet rate average = 0.00979167
	minimum = 0.006 (at node 2)
	maximum = 0.016 (at node 3)
Injected flit rate average = 0.00979167
	minimum = 0.00666667 (at node 11)
	maximum = 0.0153333 (at node 7)
Accepted flit rate average= 0.00979167
	minimum = 0.006 (at node 2)
	maximum = 0.016 (at node 3)
Injected packet length average = 1
Accepted packet length average = 1
Total in-flight flits = 2 (2 measured)
latency change    = 0.0162074
throughput change = 0.00212766
Class 0:
Packet latency average = 22.0199
	minimum = 7
	maximum = 58
Network latency average = 22.0199
	minimum = 7
	maximum = 58
Slowest packet = 5903
Flit latency average = 22.102
	minimum = 7
	maximum = 58
Slowest flit = 5903
Fragmentation average = 0
	minimum = 0
	maximum = 0
Injected packet rate average = 0.0095
	minimum = 0.006 (at node 12)
	maximum = 0.013 (at node 0)
Accepted packet rate average = 0.0095
	minimum = 0.006 (at node 2)
	maximum = 0.014 (at node 12)
Injected flit rate average = 0.0095
	minimum = 0.006 (at node 12)
	maximum = 0.013 (at node 0)
Accepted flit rate average= 0.0095
	minimum = 0.006 (at node 2)
	maximum = 0.014 (at node 12)
Injected packet length average = 1
Accepted packet length average = 1
Total in-flight flits = 2 (2 measured)
latency change    = 0.0107922
throughput change = 0.0307018
Draining all recorded packets ...
Draining remaining packets ...
Time taken is 3540 cycles
Class 0:
Packet latency average = 20.7059
	minimum = 7
	maximum = 53
Network latency average = 20.7059
	minimum = 7
	maximum = 53
Slowest packet = 6233
Flit latency average = 20.7059
	minimum = 7
	maximum = 53
Slowest flit = 6233
Fragmentation average = 0
	minimum = 0
	maximum = 0
Injected packet rate average = 0.0085
	minimum = 0 (at node 15)
	maximum = 0.016 (at node 0)
Accepted packet rate average = 0.0085
	minimum = 0 (at node 14)
	maximum = 0.018 (at node 9)
Injected flit rate average = 0.0085
	minimum = 0 (at node 15)
	maximum = 0.016 (at node 0)
Accepted flit rate average= 0.0085
	minimum = 0 (at node 14)
	maximum = 0.018 (at node 9)
Injected packet length average = 1
Accepted packet length average = 1
Total in-flight flits = 0 (0 measured)
latency change    = 1
throughput change = 1
Class 0:
Packet latency average = 21.4258
	minimum = 7
	maximum = 55
Network latency average = 21.4258
	minimum = 7
	maximum = 55
Slowest packet = 6278
Flit latency average = 21.4258
	minimum = 7
	maximum = 55
Slowest flit = 6278
Fragmentation average = 0
	minimum = 0
	maximum = 0
Injected packet rate average = 0.010125
	minimum = 0.004 (at node 15)
	maximum = 0.018 (at node 0)
Accepted packet rate average = 0.0096875
	minimum = 0.004 (at node 15)
	maximum = 0.015 (at node 5)
Injected flit rate average = 0.010125
	minimum = 0.004 (at node 15)
	maximum = 0.018 (at node 0)
Accepted flit rate average= 0.0096875
	minimum = 0.004 (at node 15)
	maximum = 0.015 (at node 5)
Injected packet length average = 1
Accepted packet length average = 1
Total in-flight flits = 7 (0 measured)
latency change    = 0.0336008
throughput change = 0.122581
Class 0:
Packet latency average = 21.6154
	minimum = 7
	maximum = 57
Network latency average = 21.6154
	minimum = 7
	maximum = 57
Slowest packet = 6410
Flit latency average = 21.6154
	minimum = 7
	maximum = 57
Slowest flit = 6410
Fragmentation average = 0
	minimum = 0
	maximum = 0
Injected packet rate average = 0.009125
	minimum = 0 (at node 13)
	maximum = 0.018 (at node 10)
Accepted packet rate average = 0.00975
	minimum = 0.002 (at node 1)
	maximum = 0.018 (at node 0)
Injected flit rate average = 0.009125
	minimum = 0 (at node 13)
	maximum = 0.018 (at node 10)
Accepted flit rate average= 0.00975
	minimum = 0.002 (at node 1)
	maximum = 0.018 (at node 0)
Injected packet length average = 1
Accepted packet length average = 1
Total in-flight flits = 2 (0 measured)
latency change    = 0.00877052
throughput change = 0.00641026
Warmed up ...Time used is 1500 cycles
Class 0:
Packet latency average = 25.3731
	minimum = 7
	maximum = 60
Network latency average = 25.3731
	minimum = 7
	maximum = 60
Slowest packet = 6489
Flit latency average = 25.4203
	minimum = 7
	maximum = 60
Slowest flit = 6489
Fragmentation average = 0
	minimum = 0
	maximum = 0
Injected packet rate average = 0.009
	minimum = 0.002 (at node 2)
	maximum = 0.02 (at node 13)
Accepted packet rate average = 0.008625
	minimum = 0.002 (at node 0)
	maximum = 0.02 (at node 12)
Injected flit rate average = 0.009
	minimum = 0.002 (at node 2)
	maximum = 0.02 (at node 13)
Accepted flit rate average= 0.008625
	minimum = 0.002 (at node 0)
	maximum = 0.02 (at node 12)
Injected packet length average = 1
Accepted packet length average = 1
Total in-flight flits = 5 (5 measured)
latency change    = 0.1481
throughput change = 0.130435
Class 0:
Packet latency average = 22.7211
	minimum = 7
	maximum = 60
Network latency average = 22.7211
	minimum = 7
	maximum = 60
Slowest packet = 6489
Flit latency average = 22.7785
	minimum = 7
	maximum = 60
Slowest flit = 6489
Fragmentation average = 0
	minimum = 0
	maximum = 0
Injected packet rate average = 0.0093125
	minimum = 0.006 (at node 12)
	maximum = 0.012 (at node 3)
Accepted packet rate average = 0.0093125
	minimum = 0.005 (at node 7)
	maximum = 0.013 (at node 4)
Injected flit rate average = 0.0093125
	minimum = 0.006 (at node 12)
	maximum = 0.012 (at node 3)
Accepted flit rate average= 0.0093125
	minimum = 0.005 (at node 7)
	maximum = 0.013 (at node 4)
Injected packet length average = 1
Accepted packet length average = 1
Total in-flight flits = 2 (2 measured)
latency change    = 0.116722
throughput change = 0.0738255
Class 0:
Packet latency average = 22.3287
	minimum = 7
	maximum = 60
Network latency average = 22.3287
	minimum = 7
	maximum = 60
Slowest packet = 6489
Flit latency average = 22.3716
	minimum = 7
	maximum = 60
Slowest flit = 6489
Fragmentation average = 0
	minimum = 0
	maximum = 0
Injected packet rate average = 0.00908333
	minimum = 0.00666667 (at node 2)
	maximum = 0.0113333 (at node 8)
Accepted packet rate average = 0.00908333
	minimum = 0.00666667 (at node 9)
	maximum = 0.012 (at node 15)
Injected flit rate average = 0.00908333
	minimum = 0.00666667 (at node 2)
	maximum = 0.0113333 (at node 8)
Accepted flit rate average= 0.00908333
	minimum = 0.00666667 (at node 9)
	maximum = 0.012 (at node 15)
Injected packet length average = 1
Accepted packet length average = 1
Total in-flight flits = 2 (2 measured)
latency change    = 0.0175731
throughput change = 0.0252294
Class 0:
Packet latency average = 21.9769
	minimum = 7
	maximum = 60
Network latency average = 21.9769
	minimum = 7
	maximum = 60
Slowest packet = 6489
Flit latency average = 22.0098
	minimum = 7
	maximum = 60
Slowest flit = 6489
Fragmentation average = 0
	minimum = 0
	maximum = 0
Injected packet rate average = 0.0095625
	minimum = 0.007 (at node 6)
	maximum = 0.0115 (at node 3)
Accepted packet rate average = 0.00953125
	minimum = 0.0055 (at node 9)
	maximum = 0.0125 (at node 3)
Injected flit rate average = 0.0095625
	minimum = 0.007 (at node 6)
	maximum = 0.0115 (at node 3)
Accepted flit rate average= 0.00953125
	minimum = 0.0055 (at node 9)
	maximum = 0.0125 (at node 3)
Injected packet length average = 1
Accepted packet length average = 1
Total in-flight flits = 3 (3 measured)
latency change    = 0.016008
throughput change = 0.0469945
Class 0:
Packet latency average = 21.7094
	minimum = 7
	maximum = 60
Network latency average = 21.7094
	minimum = 7
	maximum = 60
Slowest packet = 6489
Flit latency average = 21.737
	minimum = 7
	maximum = 60
Slowest flit = 6489
Fragmentation average = 0
	minimum = 0
	maximum = 0
Injected packet rate average = 0.009575
	minimum = 0.0072 (at node 12)
	maximum = 0.012 (at node 8)
Accepted packet rate average = 0.0096
	minimum = 0.0064 (at node 1)
	maximum = 0.0124 (at node 14)
Injected flit rate average = 0.009575
	minimum = 0.0072 (at node 12)
	maximum = 0.012 (at node 8)
Accepted flit rate average= 0.0096
	minimum = 0.0064 (at node 1)
	maximum = 0.0124 (at node 14)
Injected packet length average = 1
Accepted packet length average = 1
Total in-flight flits = 1 (1 measured)
latency change    = 0.0123206
throughput change = 0.00716146
Draining all recorded packets ...
Draining remaining packets ...
Time taken is 4017 cycles
Class 0:
Packet latency average = 21.9242
	minimum = 7
	maximum = 47
Network latency average = 21.9242
	minimum = 7
	maximum = 47
Slowest packet = 6842
Flit latency average = 21.9242
	minimum = 7
	maximum = 47
Slowest flit = 6842
Fragmentation average = 0
	minimum = 0
	maximum = 0
Injected packet rate average = 0.00875
	minimum = 0.002 (at node 7)
	maximum = 0.016 (at node 5)
Accepted packet rate average = 0.00825
	minimum = 0 (at node 1)
	maximum = 0.016 (at node 2)
Injected flit rate average = 0.00875
	minimum = 0.002 (at node 7)
	maximum = 0.016 (at node 5)
Accepted flit rate average= 0.00825
	minimum = 0 (at node 1)
	maximum = 0.016 (at node 2)
Injected packet length average = 1
Accepted packet length average = 1
Total in-flight flits = 4 (0 measured)
latency change    = 1
throughput change = 1
Class 0:
Packet latency average = 21.539
	minimum = 7
	maximum = 54
Network latency average = 21.539
	minimum = 7
	maximum = 54
Slowest packet = 6900
Flit latency average = 21.539
	minimum = 7
	maximum = 54
Slowest flit = 6900
Fragmentation average = 0
	minimum = 0
	maximum = 0
Injected packet rate average = 0.010125
	minimum = 0.006 (at node 9)
	maximum = 0.016 (at node 4)
Accepted packet rate average = 0.009625
	minimum = 0.003 (at node 1)
	maximum = 0.016 (at node 5)
Injected flit rate average = 0.010125
	minimum = 0.006 (at node 9)
	maximum = 0.016 (at node 4)
Accepted flit rate average= 0.009625
	minimum = 0.003 (at node 1)
	maximum = 0.016 (at node 5)
Injected packet length average = 1
Accepted packet length average = 1
Total in-flight flits = 8 (0 measured)
latency change    = 0.0178876
throughput change = 0.142857
Class 0:
Packet latency average = 21.0482
	minimum = 7
	maximum = 53
Network latency average = 21.0482
	minimum = 7
	maximum = 53
Slowest packet = 6978
Flit latency average = 21.0482
	minimum = 7
	maximum = 53
Slowest flit = 6978
Fragmentation average = 0
	minimum = 0
	maximum = 0
Injected packet rate average = 0.009875
	minimum = 0.006 (at node 0)
	maximum = 0.016 (at node 4)
Accepted packet rate average = 0.010375
	minimum = 0 (at node 3)
	maximum = 0.024 (at node 8)
Injected flit rate average = 0.009875
	minimum = 0.006 (at node 0)
	maximum = 0.016 (at node 4)
Accepted flit rate average= 0.010375
	minimum = 0 (at node 3)
	maximum = 0.024 (at node 8)
Injected packet length average = 1
Accepted packet length average = 1
Total in-flight flits = 4 (0 measured)
latency change    = 0.0233164
throughput change = 0.0722892
Warmed up ...Time used is 1500 cycles
Class 0:
Packet latency average = 23.5571
	minimum = 7
	maximum = 47
Network latency average = 23.5571
	minimum = 7
	maximum = 47
Slowest packet = 7072
Flit latency average = 24.1216
	minimum = 7
	maximum = 60
Slowest flit = 7049
Fragmentation average = 0
	minimum = 0
	maximum = 0
Injected packet rate average = 0.00925
	minimum = 0.004 (at node 2)
	maximum = 0.016 (at node 8)
Accepted packet rate average = 0.00925
	minimum = 0.002 (at node 1)
	maximum = 0.018 (at node 3)
Injected flit rate average = 0.00925
	minimum = 0.004 (at node 2)
	maximum = 0.016 (at node 8)
Accepted flit rate average= 0.00925
	minimum = 0.002 (at node 1)
	maximum = 0.018 (at node 3)
Injected packet length average = 1
Accepted packet length average = 1
Total in-flight flits = 4 (4 measured)
latency change    = 0.106505
throughput change = 0.121622
Class 0:
Packet latency average = 21.981
	minimum = 7
	maximum = 55
Network latency average = 21.981
	minimum = 7
	maximum = 55
Slowest packet = 7171
Flit latency average = 22.2778
	minimum = 7
	maximum = 60
Slowest flit = 7049
Fragmentation average = 0
	minimum = 0
	maximum = 0
Injected packet rate average = 0.0100625
	minimum = 0.006 (at node 12)
	maximum = 0.016 (at node 15)
Accepted packet rate average = 0.010125
	minimum = 0.005 (at node 9)
	maximum = 0.016 (at node 0)
Injected flit rate average = 0.0100625
	minimum = 0.006 (at node 12)
	maximum = 0.016 (at node 15)
Accepted flit rate average= 0.010125
	minimum = 0.005 (at node 9)
	maximum = 0.016 (at node 0)
Injected packet length average = 1
Accepted packet length average = 1
Total in-flight flits = 3 (3 measured)
latency change    = 0.0717042
throughput change = 0.0864198
Class 0:
Packet latency average = 22
	minimum = 7
	maximum = 55
Network latency average = 22
	minimum = 7
	maximum = 55
Slowest packet = 7171
Flit latency average = 22.2008
	minimum = 7
	maximum = 60
Slowest flit = 7049
Fragmentation average = 0
	minimum = 0
	maximum = 0
Injected packet rate average = 0.01
	minimum = 0.00666667 (at node 2)
	maximum = 0.014 (at node 1)
Accepted packet rate average = 0.00995833
	minimum = 0.006 (at node 7)
	maximum = 0.0146667 (at node 10)
Injected flit rate average = 0.01
	minimum = 0.00666667 (at node 2)
	maximum = 0.014 (at node 1)
Accepted flit rate average= 0.00995833
	minimum = 0.006 (at node 7)
	maximum = 0.0146667 (at node 10)
Injected packet length average = 1
Accepted packet length average = 1
Total in-flight flits = 5 (5 measured)
latency change    = 0.000863061
throughput change = 0.0167364
Class 0:
Packet latency average = 22.3023
	minimum = 7
	maximum = 59
Network latency average = 22.3023
	minimum = 7
	maximum = 59
Slowest packet = 7325
Flit latency average = 22.4508
	minimum = 7
	maximum = 60
Slowest flit = 7049
Fragmentation average = 0
	minimum = 0
	maximum = 0
Injected packet rate average = 0.0099375
	minimum = 0.0085 (at node 2)
	maximum = 0.0135 (at node 1)
Accepted packet rate average = 0.00984375
	minimum = 0.0065 (at node 9)
	maximum = 0.0135 (at node 10)
Injected flit rate average = 0.0099375
	minimum = 0.0085 (at node 2)
	maximum = 0.0135 (at node 1)
Accepted flit rate average= 0.00984375
	minimum = 0.0065 (at node 9)
	maximum = 0.0135 (at node 10)
Injected packet length average = 1
Accepted packet length average = 1
Total in-flight flits = 7 (7 measured)
latency change    = 0.0135525
throughput change = 0.0116402
Class 0:
Packet latency average = 22.4963
	minimum = 7
	maximum = 59
Network latency average = 22.4963
	minimum = 7
	maximum = 59
Slowest packet = 7325
Flit latency average = 22.6083
	minimum = 7
	maximum = 60
Slowest flit = 7049
Fragmentation average = 0
	minimum = 0
	maximum = 0
Injected packet rate average = 0.0102
	minimum = 0.008 (at node 2)
	maximum = 0.0136 (at node 1)
Accepted packet rate average = 0.010275
	minimum = 0.0064 (at node 9)
[...]
	minimum = 7
	maximum = 57
Network latency average = 20.3014
	minimum = 7
	maximum = 57
Slowest packet = 30894
Flit latency average = 21.2125
	minimum = 7
	maximum = 57
Slowest flit = 30894
Fragmentation average = 0
	minimum = 0
	maximum = 0
Injected packet rate average = 0.009375
	minimum = 0.002 (at node 3)
	maximum = 0.022 (at node 13)
Accepted packet rate average = 0.01
	minimum = 0 (at node 5)
	maximum = 0.018 (at node 8)
Injected flit rate average = 0.009375
	minimum = 0.002 (at node 3)
	maximum = 0.022 (at node 13)
Accepted flit rate average= 0.01
	minimum = 0 (at node 5)
	maximum = 0.018 (at node 8)
Injected packet length average = 1
Accepted packet length average = 1
Total in-flight flits = 2 (2 measured)
latency change    = 0.111197
throughput change = 0.15
Class 0:
Packet latency average = 21.234
	minimum = 7
	maximum = 57
Network latency average = 21.234
	minimum = 7
	maximum = 57
Slowest packet = 30894
Flit latency average = 21.6824
	minimum = 7
	maximum = 57
Slowest flit = 30894
Fragmentation average = 0
	minimum = 0
	maximum = 0
Injected packet rate average = 0.0090625
	minimum = 0.005 (at node 4)
	maximum = 0.021 (at node 13)
Accepted packet rate average = 0.00925
	minimum = 0.006 (at node 11)
	maximum = 0.014 (at node 7)
Injected flit rate average = 0.0090625
	minimum = 0.005 (at node 4)
	maximum = 0.021 (at node 13)
Accepted flit rate average= 0.00925
	minimum = 0.006 (at node 11)
	maximum = 0.014 (at node 7)
Injected packet length average = 1
Accepted packet length average = 1
Total in-flight flits = 4 (4 measured)
latency change    = 0.0439235
throughput change = 0.0810811
Class 0:
Packet latency average = 21.8219
	minimum = 7
	maximum = 57
Network latency average = 21.8219
	minimum = 7
	maximum = 57
Slowest packet = 30894
Flit latency average = 22.0973
	minimum = 7
	maximum = 57
Slowest flit = 30894
Fragmentation average = 0
	minimum = 0
	maximum = 0
Injected packet rate average = 0.00925
	minimum = 0.006 (at node 4)
	maximum = 0.0166667 (at node 13)
Accepted packet rate average = 0.00941667
	minimum = 0.006 (at node 4)
	maximum = 0.0126667 (at node 7)
Injected flit rate average = 0.00925
	minimum = 0.006 (at node 4)
	maximum = 0.0166667 (at node 13)
Accepted flit rate average= 0.00941667
	minimum = 0.006 (at node 4)
	maximum = 0.0126667 (at node 7)
Injected packet length average = 1
Accepted packet length average = 1
Total in-flight flits = 3 (3 measured)
latency change    = 0.0269397
throughput change = 0.0176991
Class 0:
Packet latency average = 21.6518
	minimum = 7
	maximum = 57
Network latency average = 21.6518
	minimum = 7
	maximum = 57
Slowest packet = 30894
Flit latency average = 21.85
	minimum = 7
	maximum = 57
Slowest flit = 30894
Fragmentation average = 0
	minimum = 0
	maximum = 0
Injected packet rate average = 0.00990625
	minimum = 0.0065 (at node 4)
	maximum = 0.0155 (at node 13)
Accepted packet rate average = 0.01
	minimum = 0.007 (at node 6)
	maximum = 0.014 (at node 7)
Injected flit rate average = 0.00990625
	minimum = 0.0065 (at node 4)
	maximum = 0.0155 (at node 13)
Accepted flit rate average= 0.01
	minimum = 0.007 (at node 6)
	maximum = 0.014 (at node 7)
Injected packet length average = 1
Accepted packet length average = 1
Total in-flight flits = 4 (4 measured)
latency change    = 0.00785898
throughput change = 0.0583333
Class 0:
Packet latency average = 21.4122
	minimum = 7
	maximum = 57
Network latency average = 21.4122
	minimum = 7
	maximum = 57
Slowest packet = 30894
Flit latency average = 21.5683
	minimum = 7
	maximum = 57
Slowest flit = 30894
Fragmentation average = 0
	minimum = 0
	maximum = 0
Injected packet rate average = 0.010275
	minimum = 0.0072 (at node 11)
	maximum = 0.014 (at node 1)
Accepted packet rate average = 0.010425
	minimum = 0.0076 (at node 6)
	maximum = 0.014 (at node 7)
Injected flit rate average = 0.010275
	minimum = 0.0072 (at node 11)
	maximum = 0.014 (at node 1)
Accepted flit rate average= 0.010425
	minimum = 0.0076 (at node 6)
	maximum = 0.014 (at node 7)
Injected packet length average = 1
Accepted packet length average = 1
Total in-flight flits = 1 (1 measured)
latency change    = 0.0111881
throughput change = 0.0407674
Class 0:
Packet latency average = 21.2733
	minimum = 7
	maximum = 57
Network latency average = 21.2733
	minimum = 7
	maximum = 57
Slowest packet = 30894
Flit latency average = 21.4113
	minimum = 7
	maximum = 57
Slowest flit = 30894
Fragmentation average = 0
	minimum = 0
	maximum = 0
Injected packet rate average = 0.00985417
	minimum = 0.007 (at node 11)
	maximum = 0.0133333 (at node 1)
Accepted packet rate average = 0.00997917
	minimum = 0.00733333 (at node 6)
	maximum = 0.0133333 (at node 1)
Injected flit rate average = 0.00985417
	minimum = 0.007 (at node 11)
	maximum = 0.0133333 (at node 1)
Accepted flit rate average= 0.00997917
	minimum = 0.00733333 (at node 6)
	maximum = 0.0133333 (at node 1)
Injected packet length average = 1
Accepted packet length average = 1
Total in-flight flits = 1 (1 measured)
latency change    = 0.00652884
throughput change = 0.0446764
Class 0:
Packet latency average = 21
	minimum = 7
	maximum = 57
Network latency average = 21
	minimum = 7
	maximum = 57
Slowest packet = 30894
Flit latency average = 21.121
	minimum = 7
	maximum = 57
Slowest flit = 30894
Fragmentation average = 0
	minimum = 0
	maximum = 0
Injected packet rate average = 0.0100357
	minimum = 0.00771429 (at node 0)
	maximum = 0.0128571 (at node 1)
Accepted packet rate average = 0.0100357
	minimum = 0.008 (at node 6)
	maximum = 0.0131429 (at node 1)
Injected flit rate average = 0.0100357
	minimum = 0.00771429 (at node 0)
	maximum = 0.0128571 (at node 1)
Accepted flit rate average= 0.0100357
	minimum = 0.008 (at node 6)
	maximum = 0.0131429 (at node 1)
Injected packet length average = 1
Accepted packet length average = 1
Total in-flight flits = 7 (7 measured)
latency change    = 0.0130145
throughput change = 0.00563464
Draining all recorded packets ...
Draining remaining packets ...
Time taken is 5067 cycles
Class 0:
Packet latency average = 21.2078
	minimum = 7
	maximum = 47
Network latency average = 21.2078
	minimum = 7
	maximum = 47
Slowest packet = 31477
Flit latency average = 21.2078
	minimum = 7
	maximum = 47
Slowest flit = 31477
Fragmentation average = 0
	minimum = 0
	maximum = 0
Injected packet rate average = 0.00975
	minimum = 0.004 (at node 8)
	maximum = 0.014 (at node 1)
Accepted packet rate average = 0.009625
	minimum = 0.002 (at node 14)
	maximum = 0.022 (at node 0)
Injected flit rate average = 0.00975
	minimum = 0.004 (at node 8)
	maximum = 0.014 (at node 1)
Accepted flit rate average= 0.009625
	minimum = 0.002 (at node 14)
	maximum = 0.022 (at node 0)
Injected packet length average = 1
Accepted packet length average = 1
Total in-flight flits = 1 (0 measured)
latency change    = 1
throughput change = 1
Class 0:
Packet latency average = 21.9338
	minimum = 7
	maximum = 48
Network latency average = 21.9338
	minimum = 7
	maximum = 48
Slowest packet = 31574
Flit latency average = 21.9338
	minimum = 7
	maximum = 48
Slowest flit = 31574
Fragmentation average = 0
	minimum = 0
	maximum = 0
Injected packet rate average = 0.0095625
	minimum = 0.006 (at node 5)
	maximum = 0.014 (at node 11)
Accepted packet rate average = 0.0094375
	minimum = 0.006 (at node 14)
	maximum = 0.017 (at node 0)
Injected flit rate average = 0.0095625
	minimum = 0.006 (at node 5)
	maximum = 0.014 (at node 11)
Accepted flit rate average= 0.0094375
	minimum = 0.006 (at node 14)
	maximum = 0.017 (at node 0)
Injected packet length average = 1
Accepted packet length average = 1
Total in-flight flits = 2 (0 measured)
latency change    = 0.0330988
throughput change = 0.0198675
Class 0:
Packet latency average = 23.0116
	minimum = 7
	maximum = 62
Network latency average = 23.0116
	minimum = 7
	maximum = 62
Slowest packet = 31673
Flit latency average = 23.0116
	minimum = 7
	maximum = 62
Slowest flit = 31673
Fragmentation average = 0
	minimum = 0
	maximum = 0
Injected packet rate average = 0.01125
	minimum = 0 (at node 8)
	maximum = 0.022 (at node 14)
Accepted packet rate average = 0.01075
	minimum = 0.006 (at node 1)
	maximum = 0.018 (at node 10)
Injected flit rate average = 0.01125
	minimum = 0 (at node 8)
	maximum = 0.022 (at node 14)
Accepted flit rate average= 0.01075
	minimum = 0.006 (at node 1)
	maximum = 0.018 (at node 10)
Injected packet length average = 1
Accepted packet length average = 1
Total in-flight flits = 6 (0 measured)
latency change    = 0.0468395
throughput change = 0.122093
Warmed up ...Time used is 1500 cycles
Class 0:
Packet latency average = 21.3611
	minimum = 7
	maximum = 43
Network latency average = 21.3611
	minimum = 7
	maximum = 43
Slowest packet = 31737
Flit latency average = 21.6667
	minimum = 7
	maximum = 43
Slowest flit = 31737
Fragmentation average = 0
	minimum = 0
	maximum = 0
Injected packet rate average = 0.009125
	minimum = 0 (at node 10)
	maximum = 0.016 (at node 1)
Accepted packet rate average = 0.00975
	minimum = 0.004 (at node 4)
	maximum = 0.024 (at node 1)
Injected flit rate average = 0.009125
	minimum = 0 (at node 10)
	maximum = 0.016 (at node 1)
Accepted flit rate average= 0.00975
	minimum = 0.004 (at node 4)
	maximum = 0.024 (at node 1)
Injected packet length average = 1
Accepted packet length average = 1
Total in-flight flits = 1 (1 measured)
latency change    = 0.0772674
throughput change = 0.102564
Class 0:
Packet latency average = 21.2345
	minimum = 7
	maximum = 57
Network latency average = 21.2345
	minimum = 7
	maximum = 57
Slowest packet = 31791
Flit latency average = 21.3974
	minimum = 7
	maximum = 57
Slowest flit = 31791
Fragmentation average = 0
	minimum = 0
	maximum = 0
Injected packet rate average = 0.009375
	minimum = 0.002 (at node 10)
	maximum = 0.015 (at node 1)
Accepted packet rate average = 0.0094375
	minimum = 0.006 (at node 4)
	maximum = 0.015 (at node 8)
Injected flit rate average = 0.009375
	minimum = 0.002 (at node 10)
	maximum = 0.015 (at node 1)
Accepted flit rate average= 0.0094375
	minimum = 0.006 (at node 4)
	maximum = 0.015 (at node 8)
Injected packet length average = 1
Accepted packet length average = 1
Total in-flight flits = 5 (5 measured)
latency change    = 0.00596334
throughput change = 0.0331126
Class 0:
Packet latency average = 21.7523
	minimum = 7
	maximum = 57
Network latency average = 21.7523
	minimum = 7
	maximum = 57
Slowest packet = 31791
Flit latency average = 21.85
	minimum = 7
	maximum = 57
Slowest flit = 31791
Fragmentation average = 0
	minimum = 0
	maximum = 0
Injected packet rate average = 0.009125
	minimum = 0.00466667 (at node 10)
	maximum = 0.014 (at node 1)
Accepted packet rate average = 0.00916667
	minimum = 0.006 (at node 10)
	maximum = 0.0146667 (at node 8)
Injected flit rate average = 0.009125
	minimum = 0.00466667 (at node 10)
	maximum = 0.014 (at node 1)
Accepted flit rate average= 0.00916667
	minimum = 0.006 (at node 10)
	maximum = 0.0146667 (at node 8)
Injected packet length average = 1
Accepted packet length average = 1
Total in-flight flits = 5 (5 measured)
latency change    = 0.0238068
throughput change = 0.0295455
Class 0:
Packet latency average = 21.6014
	minimum = 7
	maximum = 57
Network latency average = 21.6014
	minimum = 7
	maximum = 57
Slowest packet = 31791
Flit latency average = 21.6768
	minimum = 7
	maximum = 57
Slowest flit = 31791
Fragmentation average = 0
	minimum = 0
	maximum = 0
Injected packet rate average = 0.00925
	minimum = 0.005 (at node 10)
	maximum = 0.0125 (at node 1)
Accepted packet rate average = 0.00928125
	minimum = 0.0045 (at node 10)
	maximum = 0.013 (at node 8)
Injected flit rate average = 0.00925
	minimum = 0.005 (at node 10)
	maximum = 0.0125 (at node 1)
Accepted flit rate average= 0.00928125
	minimum = 0.0045 (at node 10)
	maximum = 0.013 (at node 8)
Injected packet length average = 1
Accepted packet length average = 1
Total in-flight flits = 5 (5 measured)
latency change    = 0.00698853
throughput change = 0.0123457
Draining all recorded packets ...
Draining remaining packets ...
Time taken is 3558 cycles
Class 0:
Packet latency average = 20.3378
	minimum = 7
	maximum = 47
Network latency average = 20.3378
	minimum = 7
	maximum = 47
Slowest packet = 32011
Flit latency average = 20.3378
	minimum = 7
	maximum = 47
Slowest flit = 32011
Fragmentation average = 0
	minimum = 0
	maximum = 0
Injected packet rate average = 0.009875
	minimum = 0.004 (at node 1)
	maximum = 0.018 (at node 12)
Accepted packet rate average = 0.00925
	minimum = 0.004 (at node 3)
	maximum = 0.016 (at node 8)
Injected flit rate average = 0.009875
	minimum = 0.004 (at node 1)
	maximum = 0.018 (at node 12)
Accepted flit rate average= 0.00925
	minimum = 0.004 (at node 3)
	maximum = 0.016 (at node 8)
Injected packet length average = 1
Accepted packet length average = 1
Total in-flight flits = 5 (0 measured)
latency change    = 1
throughput change = 1
Class 0:
Packet latency average = 21.4451
	minimum = 7
	maximum = 52
Network latency average = 21.4451
	minimum = 7
	maximum = 52
Slowest packet = 32110
Flit latency average = 21.4451
	minimum = 7
	maximum = 52
Slowest flit = 32110
Fragmentation average = 0
	minimum = 0
	maximum = 0
Injected packet rate average = 0.0106875
	minimum = 0.002 (at node 5)
	maximum = 0.015 (at node 3)
Accepted packet rate average = 0.01025
	minimum = 0.006 (at node 12)
	maximum = 0.017 (at node 1)
Injected flit rate average = 0.0106875
	minimum = 0.002 (at node 5)
	maximum = 0.015 (at node 3)
Accepted flit rate average= 0.01025
	minimum = 0.006 (at node 12)
	maximum = 0.017 (at node 1)
Injected packet length average = 1
Accepted packet length average = 1
Total in-flight flits = 7 (0 measured)
latency change    = 0.0516334
throughput change = 0.097561
Class 0:
Packet latency average = 22.1486
	minimum = 7
	maximum = 57
Network latency average = 22.1486
	minimum = 7
	maximum = 57
Slowest packet = 32150
Flit latency average = 22.1486
	minimum = 7
	maximum = 57
Slowest flit = 32150
Fragmentation average = 0
	minimum = 0
	maximum = 0
Injected packet rate average = 0.008875
	minimum = 0.006 (at node 1)
	maximum = 0.014 (at node 8)
Accepted packet rate average = 0.00925
	minimum = 0.004 (at node 0)
	maximum = 0.02 (at node 9)
Injected flit rate average = 0.008875
	minimum = 0.006 (at node 1)
	maximum = 0.014 (at node 8)
Accepted flit rate average= 0.00925
	minimum = 0.004 (at node 0)
	maximum = 0.02 (at node 9)
Injected packet length average = 1
Accepted packet length average = 1
Total in-flight flits = 4 (0 measured)
latency change    = 0.0317639
throughput change = 0.108108
Warmed up ...Time used is 1500 cycles
Class 0:
Packet latency average = 23.775
	minimum = 7
	maximum = 62
Network latency average = 23.775
	minimum = 7
	maximum = 62
Slowest packet = 32279
Flit latency average = 24.3452
	minimum = 7
	maximum = 62
Slowest flit = 32279
Fragmentation average = 0
	minimum = 0
	maximum = 0
Injected packet rate average = 0.0105
	minimum = 0.004 (at node 12)
	maximum = 0.018 (at node 14)
Accepted packet rate average = 0.0105
	minimum = 0.002 (at node 11)
	maximum = 0.016 (at node 12)
Injected flit rate average = 0.0105
	minimum = 0.004 (at node 12)
	maximum = 0.018 (at node 14)
Accepted flit rate average= 0.0105
	minimum = 0.002 (at node 11)
	maximum = 0.016 (at node 12)
Injected packet length average = 1
Accepted packet length average = 1
Total in-flight flits = 4 (4 measured)
latency change    = 0.0684059
throughput change = 0.119048
Class 0:
Packet latency average = 22.478
	minimum = 7
	maximum = 62
Network latency average = 22.478
	minimum = 7
	maximum = 62
Slowest packet = 32279
Flit latency average = 22.8037
	minimum = 7
	maximum = 62
Slowest flit = 32279
Fragmentation average = 0
	minimum = 0
	maximum = 0
Injected packet rate average = 0.0100625
	minimum = 0.004 (at node 12)
	maximum = 0.017 (at node 2)
Accepted packet rate average = 0.0101875
	minimum = 0.003 (at node 11)
	maximum = 0.013 (at node 5)
Injected flit rate average = 0.0100625
	minimum = 0.004 (at node 12)
	maximum = 0.017 (at node 2)
Accepted flit rate average= 0.0101875
	minimum = 0.003 (at node 11)
	maximum = 0.013 (at node 5)
Injected packet length average = 1
Accepted packet length average = 1
Total in-flight flits = 2 (2 measured)
latency change    = 0.0577015
throughput change = 0.0306748
Class 0:
Packet latency average = 22.1116
	minimum = 7
	maximum = 62
Network latency average = 22.1116
	minimum = 7
	maximum = 62
Slowest packet = 32279
Flit latency average = 22.3333
	minimum = 7
	maximum = 62
Slowest flit = 32279
Fragmentation average = 0
	minimum = 0
	maximum = 0
Injected packet rate average = 0.0101667
	minimum = 0.006 (at node 10)
	maximum = 0.0146667 (at node 2)
Accepted packet rate average = 0.01025
	minimum = 0.004 (at node 11)
	maximum = 0.014 (at node 0)
Injected flit rate average = 0.0101667
	minimum = 0.006 (at node 10)
	maximum = 0.0146667 (at node 2)
Accepted flit rate average= 0.01025
	minimum = 0.004 (at node 11)
	maximum = 0.014 (at node 0)
Injected packet length average = 1
Accepted packet length average = 1
Total in-flight flits = 2 (2 measured)
latency change    = 0.0165713
throughput change = 0.00609756
Class 0:
Packet latency average = 21.9182
	minimum = 7
	maximum = 62
Network latency average = 21.9182
	minimum = 7
	maximum = 62
Slowest packet = 32279
Flit latency average = 22.0901
	minimum = 7
	maximum = 62
Slowest flit = 32279
Fragmentation average = 0
	minimum = 0
	maximum = 0
Injected packet rate average = 0.0100313
	minimum = 0.0065 (at node 10)
	maximum = 0.0135 (at node 2)
Accepted packet rate average = 0.0100625
	minimum = 0.0065 (at node 7)
	maximum = 0.014 (at node 0)
Injected flit rate average = 0.0100313
	minimum = 0.0065 (at node 10)
	maximum = 0.0135 (at node 2)
Accepted flit rate average= 0.0100625
	minimum = 0.0065 (at node 7)
	maximum = 0.014 (at node 0)
Injected packet length average = 1
Accepted packet length average = 1
Total in-flight flits = 3 (3 measured)
latency change    = 0.00882057
throughput change = 0.0186335
Class 0:
Packet latency average = 21.6805
	minimum = 7
	maximum = 62
Network latency average = 21.6805
	minimum = 7
	maximum = 62
Slowest packet = 32279
Flit latency average = 21.8164
	minimum = 7
	maximum = 62
Slowest flit = 32279
Fragmentation average = 0
	minimum = 0
	maximum = 0
Injected packet rate average = 0.010275
	minimum = 0.0064 (at node 12)
	maximum = 0.0128 (at node 0)
Accepted packet rate average = 0.01035
	minimum = 0.0068 (at node 11)
	maximum = 0.0136 (at node 0)
Injected flit rate average = 0.010275
	minimum = 0.0064 (at node 12)
	maximum = 0.0128 (at node 0)
Accepted flit rate average= 0.01035
	minimum = 0.0068 (at node 11)
	maximum = 0.0136 (at node 0)
Injected packet length average = 1
Accepted packet length average = 1
Total in-flight flits = 1 (1 measured)
latency change    = 0.0109661
throughput change = 0.0277778
Draining all recorded packets ...
Draining remaining packets ...
Time taken is 4014 cycles
====== Overall Traffic Statistics ======
====== Traffic class 0 ======
Packet latency average = 21.6055 (50 samples)
	minimum = 7 (50 samples)
	maximum = 60.3 (50 samples)
Network latency average = 21.6055 (50 samples)
	minimum = 7 (50 samples)
	maximum = 60.3 (50 samples)
Flit latency average = 21.6413 (50 samples)
	minimum = 7 (50 samples)
	maximum = 60.32 (50 samples)
Fragmentation average = 0 (50 samples)
	minimum = 0 (50 samples)
	maximum = 0 (50 samples)
Injected packet rate average = 0.00993112 (50 samples)
	minimum = 0.0065159 (50 samples)
	maximum = 0.0136411 (50 samples)
Accepted packet rate average = 0.00994573 (50 samples)
	minimum = 0.006732 (50 samples)
	maximum = 0.0137981 (50 samples)
Injected flit rate average = 0.00993112 (50 samples)
	minimum = 0.0065159 (50 samples)
	maximum = 0.0136411 (50 samples)
Accepted flit rate average = 0.00994573 (50 samples)
	minimum = 0.006732 (50 samples)
	maximum = 0.0137981 (50 samples)
Injected packet size average = 1 (50 samples)
Accepted packet size average = 1 (50 samples)
Hops average = 3.89328 (50 samples)
Total run time 2.96613
