BEGIN Configuration File: /tmp/tmptz0hqjin.cfg
topology = mesh;
k = 4;
n = 2;
routing_function = planar_adapt;
num_vcs = 4;
vc_buf_size = 4;
wait_for_tail_credit = 1;
vc_allocator = islip;
sw_allocator = islip;
alloc_iters = 1;
credit_delay = 2;
routing_delay = 1;
vc_alloc_delay = 1;
sw_alloc_delay = 1;
input_speedup = 2;
output_speedup = 1;
internal_speedup = 1.0;
traffic = uniform;
packet_size = 1;
sim_type = latency;
injection_rate = 0.05;
warmup_periods = 3;
sample_period = 500;
sim_count = 50;
seed = 0;
link_failures = 1;
fail_seed = 101;

END Configuration File: /tmp/tmptz0hqjin.cfg
failure at node 14, channel 0 (1/1)
Class 0:
Packet latency average = 20.3776
	minimum = 7
	maximum = 57
Network latency average = 20.3776
	minimum = 7
	maximum = 57
Slowest packet = 231
Flit latency average = 20.3776
	minimum = 7
	maximum = 57
Slowest flit = 231
Fragmentation average = 0
	minimum = 0
	maximum = 0
Injected packet rate average = 0.049625
	minimum = 0.032 (at node 8)
	maximum = 0.064 (at node 13)
Accepted packet rate average = 0.048
	minimum = 0.024 (at node 11)
	maximum = 0.064 (at node 2)
Injected flit rate average = 0.049625
	minimum = 0.032 (at node 8)
	maximum = 0.064 (at node 13)
Accepted flit rate average= 0.048
	minimum = 0.024 (at node 11)
	maximum = 0.064 (at node 2)
Injected packet length average = 1
Accepted packet length average = 1
Total in-flight flits = 13 (0 measured)
latency change    = 1
throughput change = 1
Class 0:
Packet latency average = 20.1909
	minimum = 7
	maximum = 57
Network latency average = 20.1909
	minimum = 7
	maximum = 57
Slowest packet = 231
Flit latency average = 20.1909
	minimum = 7
	maximum = 57
Slowest flit = 231
Fragmentation average = 0
	minimum = 0
	maximum = 0
Injected packet rate average = 0.048875
	minimum = 0.041 (at node 5)
	maximum = 0.054 (at node 1)
Accepted packet rate average = 0.048125
	minimum = 0.038 (at node 11)
	maximum = 0.054 (at node 0)
Injected flit rate average = 0.048875
	minimum = 0.041 (at node 5)
	maximum = 0.054 (at node 1)
Accepted flit rate average= 0.048125
	minimum = 0.038 (at node 11)
	maximum = 0.054 (at node 0)
Injected packet length average = 1
Accepted packet length average = 1
Total in-flight flits = 12 (0 measured)
latency change    = 0.00924649
throughput change = 0.0025974
Class 0:
Packet latency average = 21.0897
	minimum = 7
	maximum = 60
Network latency average = 21.0897
	minimum = 7
	maximum = 60
Slowest packet = 1036
Flit latency average = 21.0897
	minimum = 7
	maximum = 60
Slowest flit = 1036
Fragmentation average = 0
	minimum = 0
	maximum = 0
Injected packet rate average = 0.05025
	minimum = 0.032 (at node 11)
	maximum = 0.064 (at node 12)
Accepted packet rate average = 0.04875
	minimum = 0.032 (at node 0)
	maximum = 0.064 (at node 7)
Injected flit rate average = 0.05025
	minimum = 0.032 (at node 11)
	maximum = 0.064 (at node 12)
Accepted flit rate average= 0.04875
	minimum = 0.032 (at node 0)
	maximum = 0.064 (at node 7)
Injected packet length average = 1
Accepted packet length average = 1
Total in-flight flits = 24 (0 measured)
latency change    = 0.0426195
throughput change = 0.0128205
Warmed up ...Time used is 1500 cycles
Class 0:
Packet latency average = 20.4278
	minimum = 7
	maximum = 58
Network latency average = 20.4278
	minimum = 7
	maximum = 58
Slowest packet = 1495
Flit latency average = 20.5578
	minimum = 7
	maximum = 58
Slowest flit = 1495
Fragmentation average = 0
	minimum = 0
	maximum = 0
Injected packet rate average = 0.0485
	minimum = 0.036 (at node 9)
	maximum = 0.066 (at node 13)
Accepted packet rate average = 0.04975
	minimum = 0.03 (at node 2)
	maximum = 0.07 (at node 11)
Injected flit rate average = 0.0485
	minimum = 0.036 (at node 9)
	maximum = 0.066 (at node 13)
Accepted flit rate average= 0.04975
	minimum = 0.03 (at node 2)
	maximum = 0.07 (at node 11)
Injected packet length average = 1
Accepted packet length average = 1
Total in-flight flits = 14 (14 measured)
latency change    = 0.0324037
throughput change = 0.0201005
Class 0:
Packet latency average = 20.6495
	minimum = 7
	maximum = 69
Network latency average = 20.6495
	minimum = 7
	maximum = 69
Slowest packet = 1866
Flit latency average = 20.7061
	minimum = 7
	maximum = 69
Slowest flit = 1866
Fragmentation average = 0
	minimum = 0
	maximum = 0
Injected packet rate average = 0.0505625
	minimum = 0.04 (at node 9)
	maximum = 0.064 (at node 13)
Accepted packet rate average = 0.05125
	minimum = 0.036 (at node 2)
	maximum = 0.064 (at node 8)
Injected flit rate average = 0.0505625
	minimum = 0.04 (at node 9)
	maximum = 0.064 (at node 13)
Accepted flit rate average= 0.05125
	minimum = 0.036 (at node 2)
	maximum = 0.064 (at node 8)
Injected packet length average = 1
Accepted packet length average = 1
Total in-flight flits = 13 (13 measured)
latency change    = 0.0107359
throughput change = 0.0292683
Class 0:
Packet latency average = 20.6142
	minimum = 7
	maximum = 69
Network latency average = 20.6142
	minimum = 7
	maximum = 69
Slowest packet = 1866
Flit latency average = 20.653
	minimum = 7
	maximum = 69
Slowest flit = 1866
Fragmentation average = 0
	minimum = 0
	maximum = 0
Injected packet rate average = 0.0507083
	minimum = 0.044 (at node 9)
	maximum = 0.0566667 (at node 11)
Accepted packet rate average = 0.0507917
	minimum = 0.04 (at node 4)
	maximum = 0.0593333 (at node 11)
Injected flit rate average = 0.0507083
	minimum = 0.044 (at node 9)
	maximum = 0.0566667 (at node 11)
Accepted flit rate average= 0.0507917
	minimum = 0.04 (at node 4)
	maximum = 0.0593333 (at node 11)
Injected packet length average = 1
Accepted packet length average = 1
Total in-flight flits = 22 (22 measured)
latency change    = 0.00171103
throughput change = 0.00902379
Draining all recorded packets ...
Draining remaining packets ...
Time taken is 3052 cycles
Class 0:
Packet latency average = 20.5707
	minimum = 7
	maximum = 42
Network latency average = 20.5707
	minimum = 7
	maximum = 42
Slowest packet = 2481
Flit latency average = 20.5707
	minimum = 7
	maximum = 42
Slowest flit = 2481
Fragmentation average = 0
	minimum = 0
	maximum = 0
Injected packet rate average = 0.050125
	minimum = 0.042 (at node 0)
	maximum = 0.068 (at node 15)
Accepted packet rate average = 0.046875
	minimum = 0.024 (at node 15)
	maximum = 0.062 (at node 13)
Injected flit rate average = 0.050125
	minimum = 0.042 (at node 0)
	maximum = 0.068 (at node 15)
Accepted flit rate average= 0.046875
	minimum = 0.024 (at node 15)
	maximum = 0.062 (at node 13)
Injected packet length average = 1
Accepted packet length average = 1
Total in-flight flits = 26 (0 measured)
latency change    = 1
throughput change = 1
Class 0:
Packet latency average = 20.4332
	minimum = 7
	maximum = 49
Network latency average = 20.4332
	minimum = 7
	maximum = 49
Slowest packet = 2844
Flit latency average = 20.4332
	minimum = 7
	maximum = 49
Slowest flit = 2844
Fragmentation average = 0
	minimum = 0
	maximum = 0
Injected packet rate average = 0.048
	minimum = 0.035 (at node 0)
	maximum = 0.059 (at node 15)
Accepted packet rate average = 0.04675
	minimum = 0.034 (at node 15)
	maximum = 0.059 (at node 2)
Injected flit rate average = 0.048
	minimum = 0.035 (at node 0)
	maximum = 0.059 (at node 15)
Accepted flit rate average= 0.04675
	minimum = 0.034 (at node 15)
	maximum = 0.059 (at node 2)
Injected packet length average = 1
Accepted packet length average = 1
Total in-flight flits = 20 (0 measured)
latency change    = 0.00672983
throughput change = 0.0026738
Class 0:
Packet latency average = 20.3564
	minimum = 7
	maximum = 63
Network latency average = 20.3564
	minimum = 7
	maximum = 63
Slowest packet = 3270
Flit latency average = 20.3564
	minimum = 7
	maximum = 63
Slowest flit = 3270
Fragmentation average = 0
	minimum = 0
	maximum = 0
Injected packet rate average = 0.0465
	minimum = 0.036 (at node 6)
	maximum = 0.06 (at node 10)
Accepted packet rate average = 0.047
	minimum = 0.034 (at node 7)
	maximum = 0.062 (at node 6)
Injected flit rate average = 0.0465
	minimum = 0.036 (at node 6)
	maximum = 0.06 (at node 10)
Accepted flit rate average= 0.047
	minimum = 0.034 (at node 7)
	maximum = 0.062 (at node 6)
Injected packet length average = 1
Accepted packet length average = 1
Total in-flight flits = 16 (0 measured)
latency change    = 0.0037714
throughput change = 0.00531915
Warmed up ...Time used is 1500 cycles
Class 0:
Packet latency average = 19.9133
	minimum = 7
	maximum = 37
Network latency average = 19.9133
	minimum = 7
	maximum = 37
Slowest packet = 3586
Flit latency average = 20.0182
	minimum = 7
	maximum = 37
Slowest flit = 3586
Fragmentation average = 0
	minimum = 0
	maximum = 0
Injected packet rate average = 0.048625
	minimum = 0.034 (at node 0)
	maximum = 0.064 (at node 9)
Accepted packet rate average = 0.048125
	minimum = 0.038 (at node 9)
	maximum = 0.06 (at node 3)
Injected flit rate average = 0.048625
	minimum = 0.034 (at node 0)
	maximum = 0.064 (at node 9)
Accepted flit rate average= 0.048125
	minimum = 0.038 (at node 9)
	maximum = 0.06 (at node 3)
Injected packet length average = 1
Accepted packet length average = 1
Total in-flight flits = 20 (20 measured)
latency change    = 0.0222517
throughput change = 0.0233766
Class 0:
Packet latency average = 20.0883
	minimum = 7
	maximum = 44
Network latency average = 20.0883
	minimum = 7
	maximum = 44
Slowest packet = 4281
Flit latency average = 20.1368
	minimum = 7
	maximum = 44
Slowest flit = 4281
Fragmentation average = 0
	minimum = 0
	maximum = 0
Injected packet rate average = 0.048875
	minimum = 0.04 (at node 8)
	maximum = 0.058 (at node 15)
Accepted packet rate average = 0.0484375
	minimum = 0.04 (at node 4)
	maximum = 0.059 (at node 7)
Injected flit rate average = 0.048875
	minimum = 0.04 (at node 8)
	maximum = 0.058 (at node 15)
Accepted flit rate average= 0.0484375
	minimum = 0.04 (at node 4)
	maximum = 0.059 (at node 7)
Injected packet length average = 1
Accepted packet length average = 1
Total in-flight flits = 23 (23 measured)
latency change    = 0.0087113
throughput change = 0.00645161
Class 0:
Packet latency average = 20.2498
	minimum = 7
	maximum = 45
Network latency average = 20.2498
	minimum = 7
	maximum = 45
Slowest packet = 4569
Flit latency average = 20.2797
	minimum = 7
	maximum = 45
Slowest flit = 4569
Fragmentation average = 0
	minimum = 0
	maximum = 0
Injected packet rate average = 0.0488333
	minimum = 0.0393333 (at node 6)
	maximum = 0.0593333 (at node 15)
Accepted packet rate average = 0.0487083
	minimum = 0.0426667 (at node 0)
	maximum = 0.058 (at node 7)
Injected flit rate average = 0.0488333
	minimum = 0.0393333 (at node 6)
	maximum = 0.0593333 (at node 15)
Accepted flit rate average= 0.0487083
	minimum = 0.0426667 (at node 0)
	maximum = 0.058 (at node 7)
Injected packet length average = 1
Accepted packet length average = 1
Total in-flight flits = 19 (19 measured)
latency change    = 0.00797584
throughput change = 0.00556031
Draining all recorded packets ...
Draining remaining packets ...
Time taken is 3069 cycles
Class 0:
Packet latency average = 20.223
	minimum = 7
	maximum = 47
Network latency average = 20.223
	minimum = 7
	maximum = 47
Slowest packet = 4967
Flit latency average = 20.223
	minimum = 7
	maximum = 47
Slowest flit = 4967
Fragmentation average = 0
	minimum = 0
	maximum = 0
Injected packet rate average = 0.055
	minimum = 0.04 (at node 8)
	maximum = 0.072 (at node 3)
Accepted packet rate average = 0.05325
	minimum = 0.036 (at node 6)
	maximum = 0.07 (at node 14)
Injected flit rate average = 0.055
	minimum = 0.04 (at node 8)
	maximum = 0.072 (at node 3)
Accepted flit rate average= 0.05325
	minimum = 0.036 (at node 6)
	maximum = 0.07 (at node 14)
Injected packet length average = 1
Accepted packet length average = 1
Total in-flight flits = 14 (0 measured)
latency change    = 1
throughput change = 1
Class 0:
Packet latency average = 20.1687
	minimum = 7
	maximum = 49
Network latency average = 20.1687
	minimum = 7
	maximum = 49
Slowest packet = 5285
Flit latency average = 20.1687
	minimum = 7
	maximum = 49
Slowest flit = 5285
Fragmentation average = 0
	minimum = 0
	maximum = 0
Injected packet rate average = 0.051
	minimum = 0.038 (at node 4)
	maximum = 0.064 (at node 13)
Accepted packet rate average = 0.05
	minimum = 0.039 (at node 2)
	maximum = 0.061 (at node 14)
Injected flit rate average = 0.051
	minimum = 0.038 (at node 4)
	maximum = 0.064 (at node 13)
Accepted flit rate average= 0.05
	minimum = 0.039 (at node 2)
	maximum = 0.061 (at node 14)
Injected packet length average = 1
Accepted packet length average = 1
Total in-flight flits = 16 (0 measured)
latency change    = 0.00269004
throughput change = 0.065
Class 0:
Packet latency average = 19.7542
	minimum = 7
	maximum = 54
Network latency average = 19.7542
	minimum = 7
	maximum = 54
Slowest packet = 5567
Flit latency average = 19.7542
	minimum = 7
	maximum = 54
Slowest flit = 5567
Fragmentation average = 0
	minimum = 0
	maximum = 0
Injected packet rate average = 0.0525
	minimum = 0.036 (at node 12)
	maximum = 0.068 (at node 6)
Accepted packet rate average = 0.051875
	minimum = 0.024 (at node 13)
	maximum = 0.066 (at node 9)
Injected flit rate average = 0.0525
	minimum = 0.036 (at node 12)
	maximum = 0.068 (at node 6)
Accepted flit rate average= 0.051875
	minimum = 0.024 (at node 13)
	maximum = 0.066 (at node 9)
Injected packet length average = 1
Accepted packet length average = 1
Total in-flight flits = 21 (0 measured)
latency change    = 0.0209845
throughput change = 0.0361446
Warmed up ...Time used is 1500 cycles
Class 0:
Packet latency average = 20.4634
	minimum = 7
	maximum = 45
Network latency average = 20.4634
	minimum = 7
	maximum = 45
Slowest packet = 6225
Flit latency average = 20.6077
	minimum = 7
	maximum = 45
Slowest flit = 6225
Fragmentation average = 0
	minimum = 0
	maximum = 0
Injected packet rate average = 0.04825
	minimum = 0.036 (at node 10)
	maximum = 0.06 (at node 3)
Accepted packet rate average = 0.04875
	minimum = 0.038 (at node 3)
	maximum = 0.064 (at node 8)
Injected flit rate average = 0.04825
	minimum = 0.036 (at node 10)
	maximum = 0.06 (at node 3)
Accepted flit rate average= 0.04875
	minimum = 0.038 (at node 3)
	maximum = 0.064 (at node 8)
Injected packet length average = 1
Accepted packet length average = 1
Total in-flight flits = 17 (17 measured)
latency change    = 0.0346569
throughput change = 0.0641026
Class 0:
Packet latency average = 20.3307
	minimum = 7
	maximum = 45
Network latency average = 20.3307
	minimum = 7
	maximum = 45
Slowest packet = 6225
Flit latency average = 20.405
	minimum = 7
	maximum = 45
Slowest flit = 6225
Fragmentation average = 0
	minimum = 0
	maximum = 0
Injected packet rate average = 0.049625
	minimum = 0.041 (at node 7)
	maximum = 0.058 (at node 4)
Accepted packet rate average = 0.0496875
	minimum = 0.042 (at node 3)
	maximum = 0.062 (at node 8)
Injected flit rate average = 0.049625
	minimum = 0.041 (at node 7)
	maximum = 0.058 (at node 4)
Accepted flit rate average= 0.0496875
	minimum = 0.042 (at node 3)
	maximum = 0.062 (at node 8)
Injected packet length average = 1
Accepted packet length average = 1
Total in-flight flits = 20 (20 measured)
latency change    = 0.00652535
throughput change = 0.0188679
Class 0:
Packet latency average = 20.2732
	minimum = 7
	maximum = 54
Network latency average = 20.2732
	minimum = 7
	maximum = 54
Slowest packet = 7164
Flit latency average = 20.3227
	minimum = 7
	maximum = 54
Slowest flit = 7164
Fragmentation average = 0
	minimum = 0
	maximum = 0
Injected packet rate average = 0.0504583
	minimum = 0.0413333 (at node 13)
	maximum = 0.0613333 (at node 6)
Accepted packet rate average = 0.05075
	minimum = 0.0453333 (at node 14)
	maximum = 0.0626667 (at node 8)
Injected flit rate average = 0.0504583
	minimum = 0.0413333 (at node 13)
	maximum = 0.0613333 (at node 6)
Accepted flit rate average= 0.05075
	minimum = 0.0453333 (at node 14)
	maximum = 0.0626667 (at node 8)
Injected packet length average = 1
Accepted packet length average = 1
Total in-flight flits = 14 (14 measured)
latency change    = 0.00283953
throughput change = 0.020936
Class 0:
Packet latency average = 20.2934
	minimum = 7
	maximum = 54
Network latency average = 20.2934
	minimum = 7
	maximum = 54
Slowest packet = 7164
Flit latency average = 20.3308
	minimum = 7
	maximum = 54
Slowest flit = 7164
Fragmentation average = 0
	minimum = 0
	maximum = 0
Injected packet rate average = 0.0495
	minimum = 0.041 (at node 13)
	maximum = 0.057 (at node 6)
Accepted packet rate average = 0.0499687
	minimum = 0.0445 (at node 3)
	maximum = 0.0615 (at node 8)
Injected flit rate average = 0.0495
	minimum = 0.041 (at node 13)
	maximum = 0.057 (at node 6)
Accepted flit rate average= 0.0499687
	minimum = 0.0445 (at node 3)
	maximum = 0.0615 (at node 8)
Injected packet length average = 1
Accepted packet length average = 1
Total in-flight flits = 6 (6 measured)
latency change    = 0.000996699
throughput change = 0.0156348
Draining all recorded packets ...
Draining remaining packets ...
Time taken is 3565 cycles
Class 0:
Packet latency average = 20.2062
	minimum = 7
	maximum = 44
Network latency average = 20.2062
	minimum = 7
	maximum = 44
Slowest packet = 7748
Flit latency average = 20.2062
	minimum = 7
	maximum = 44
Slowest flit = 7748
Fragmentation average = 0
	minimum = 0
	maximum = 0
Injected packet rate average = 0.04725
	minimum = 0.034 (at node 0)
	maximum = 0.056 (at node 12)
Accepted packet rate average = 0.04425
	minimum = 0.026 (at node 6)
	maximum = 0.064 (at node 12)
Injected flit rate average = 0.04725
	minimum = 0.034 (at node 0)
	maximum = 0.056 (at node 12)
Accepted flit rate average= 0.04425
	minimum = 0.026 (at node 6)
	maximum = 0.064 (at node 12)
Injected packet length average = 1
Accepted packet length average = 1
Total in-flight flits = 24 (0 measured)
latency change    = 1
throughput change = 1
Class 0:
Packet latency average = 20.0262
	minimum = 7
	maximum = 44
Network latency average = 20.0262
	minimum = 7
	maximum = 44
Slowest packet = 7748
Flit latency average = 20.0262
	minimum = 7
	maximum = 44
Slowest flit = 7748
Fragmentation average = 0
	minimum = 0
	maximum = 0
Injected packet rate average = 0.048625
	minimum = 0.04 (at node 1)
	maximum = 0.058 (at node 11)
Accepted packet rate average = 0.0476875
	minimum = 0.032 (at node 4)
	maximum = 0.061 (at node 3)
Injected flit rate average = 0.048625
	minimum = 0.04 (at node 1)
	maximum = 0.058 (at node 11)
Accepted flit rate average= 0.0476875
	minimum = 0.032 (at node 4)
	maximum = 0.061 (at node 3)
Injected packet length average = 1
Accepted packet length average = 1
Total in-flight flits = 15 (0 measured)
latency change    = 0.00898834
throughput change = 0.0720839
Class 0:
Packet latency average = 19.7402
	minimum = 7
	maximum = 46
Network latency average = 19.7402
	minimum = 7
	maximum = 46
Slowest packet = 8657
Flit latency average = 19.7402
	minimum = 7
	maximum = 46
Slowest flit = 8657
Fragmentation average = 0
	minimum = 0
	maximum = 0
Injected packet rate average = 0.04775
	minimum = 0.038 (at node 3)
	maximum = 0.064 (at node 9)
Accepted packet rate average = 0.047625
	minimum = 0.032 (at node 10)
	maximum = 0.07 (at node 2)
Injected flit rate average = 0.04775
	minimum = 0.038 (at node 3)
	maximum = 0.064 (at node 9)
Accepted flit rate average= 0.047625
	minimum = 0.032 (at node 10)
	maximum = 0.07 (at node 2)
Injected packet length average = 1
Accepted packet length average = 1
Total in-flight flits = 16 (0 measured)
latency change    = 0.014491
throughput change = 0.00131234
Warmed up ...Time used is 1500 cycles
Class 0:
Packet latency average = 20.4248
	minimum = 7
	maximum = 52
Network latency average = 20.4248
	minimum = 7
	maximum = 52
Slowest packet = 8914
Flit latency average = 20.5327
	minimum = 7
	maximum = 52
Slowest flit = 8914
Fragmentation average = 0
	minimum = 0
	maximum = 0
Injected packet rate average = 0.054125
	minimum = 0.038 (at node 3)
	maximum = 0.082 (at node 0)
Accepted packet rate average = 0.0535
	minimum = 0.038 (at node 12)
	maximum = 0.08 (at node 0)
Injected flit rate average = 0.054125
	minimum = 0.038 (at node 3)
	maximum = 0.082 (at node 0)
Accepted flit rate average= 0.0535
	minimum = 0.038 (at node 12)
	maximum = 0.08 (at node 0)
Injected packet length average = 1
Accepted packet length average = 1
Total in-flight flits = 21 (21 measured)
latency change    = 0.0335181
throughput change = 0.109813
Class 0:
Packet latency average = 20.6471
	minimum = 7
	maximum = 52
Network latency average = 20.6471
	minimum = 7
	maximum = 52
Slowest packet = 8914
Flit latency average = 20.6983
	minimum = 7
	maximum = 52
Slowest flit = 8914
Fragmentation average = 0
	minimum = 0
	maximum = 0
Injected packet rate average = 0.052
	minimum = 0.038 (at node 14)
	maximum = 0.073 (at node 0)
Accepted packet rate average = 0.052
	minimum = 0.042 (at node 9)
	maximum = 0.063 (at node 0)
Injected flit rate average = 0.052
	minimum = 0.038 (at node 14)
	maximum = 0.073 (at node 0)
Accepted flit rate average= 0.052
	minimum = 0.042 (at node 9)
	maximum = 0.063 (at node 0)
Injected packet length average = 1
Accepted packet length average = 1
Total in-flight flits = 16 (16 measured)
latency change    = 0.0107667
throughput change = 0.0288462
Class 0:
Packet latency average = 20.4984
	minimum = 7
	maximum = 52
Network latency average = 20.4984
	minimum = 7
	maximum = 52
Slowest packet = 8914
Flit latency average = 20.5342
	minimum = 7
	maximum = 52
Slowest flit = 8914
Fragmentation average = 0
	minimum = 0
	maximum = 0
Injected packet rate average = 0.0522917
	minimum = 0.0393333 (at node 14)
	maximum = 0.0666667 (at node 0)
Accepted packet rate average = 0.0524167
	minimum = 0.0453333 (at node 9)
	maximum = 0.0626667 (at node 10)
Injected flit rate average = 0.0522917
	minimum = 0.0393333 (at node 14)
	maximum = 0.0666667 (at node 0)
Accepted flit rate average= 0.0524167
	minimum = 0.0453333 (at node 9)
	maximum = 0.0626667 (at node 10)
Injected packet length average = 1
Accepted packet length average = 1
Total in-flight flits = 13 (13 measured)
latency change    = 0.00725272
throughput change = 0.00794913
Class 0:
Packet latency average = 20.3104
	minimum = 7
	maximum = 52
Network latency average = 20.3104
	minimum = 7
	maximum = 52
Slowest packet = 8914
Flit latency average = 20.3391
	minimum = 7
	maximum = 52
Slowest flit = 8914
Fragmentation average = 0
	minimum = 0
	maximum = 0
Injected packet rate average = 0.0524063
	minimum = 0.0415 (at node 14)
	maximum = 0.0635 (at node 0)
Accepted packet rate average = 0.05225
	minimum = 0.046 (at node 9)
	maximum = 0.06 (at node 10)
Injected flit rate average = 0.0524063
	minimum = 0.0415 (at node 14)
	maximum = 0.0635 (at node 0)
Accepted flit rate average= 0.05225
	minimum = 0.046 (at node 9)
	maximum = 0.06 (at node 10)
Injected packet length average = 1
Accepted packet length average = 1
Total in-flight flits = 21 (21 measured)
latency change    = 0.00925651
throughput change = 0.00318979
Draining all recorded packets ...
Draining remaining packets ...
Time taken is 3557 cycles
Class 0:
Packet latency average = 20.8839
	minimum = 7
	maximum = 68
Network latency average = 20.8839
	minimum = 7
	maximum = 68
Slowest packet = 10826
Flit latency average = 20.8839
	minimum = 7
	maximum = 68
Slowest flit = 10826
Fragmentation average = 0
	minimum = 0
	maximum = 0
Injected packet rate average = 0.05475
	minimum = 0.032 (at node 4)
	maximum = 0.08 (at node 10)
Accepted packet rate average = 0.05275
	minimum = 0.04 (at node 0)
	maximum = 0.066 (at node 7)
Injected flit rate average = 0.05475
	minimum = 0.032 (at node 4)
	maximum = 0.08 (at node 10)
Accepted flit rate average= 0.05275
	minimum = 0.04 (at node 0)
	maximum = 0.066 (at node 7)
Injected packet length average = 1
Accepted packet length average = 1
Total in-flight flits = 16 (0 measured)
latency change    = 1
throughput change = 1
Class 0:
Packet latency average = 20.1928
	minimum = 7
	maximum = 68
Network latency average = 20.1928
	minimum = 7
	maximum = 68
Slowest packet = 10826
Flit latency average = 20.1928
	minimum = 7
	maximum = 68
Slowest flit = 10826
Fragmentation average = 0
	minimum = 0
	maximum = 0
Injected packet rate average = 0.053125
	minimum = 0.041 (at node 4)
	maximum = 0.07 (at node 11)
Accepted packet rate average = 0.051875
	minimum = 0.038 (at node 0)
	maximum = 0.064 (at node 5)
Injected flit rate average = 0.053125
	minimum = 0.041 (at node 4)
	maximum = 0.07 (at node 11)
Accepted flit rate average= 0.051875
	minimum = 0.038 (at node 0)
	maximum = 0.064 (at node 5)
Injected packet length average = 1
Accepted packet length average = 1
Total in-flight flits = 20 (0 measured)
latency change    = 0.0342259
throughput change = 0.0168675
Class 0:
Packet latency average = 20.1178
	minimum = 7
	maximum = 44
Network latency average = 20.1178
	minimum = 7
	maximum = 44
Slowest packet = 11436
Flit latency average = 20.1178
	minimum = 7
	maximum = 44
Slowest flit = 11436
Fragmentation average = 0
	minimum = 0
	maximum = 0
Injected packet rate average = 0.048625
	minimum = 0.034 (at node 6)
	maximum = 0.066 (at node 10)
Accepted packet rate average = 0.049875
	minimum = 0.024 (at node 4)
	maximum = 0.07 (at node 9)
Injected flit rate average = 0.048625
	minimum = 0.034 (at node 6)
	maximum = 0.066 (at node 10)
Accepted flit rate average= 0.049875
	minimum = 0.024 (at node 4)
	maximum = 0.07 (at node 9)
Injected packet length average = 1
Accepted packet length average = 1
Total in-flight flits = 10 (0 measured)
latency change    = 0.00372688
throughput change = 0.0401003
Warmed up ...Time used is 1500 cycles
Class 0:
Packet latency average = 19.9091
	minimum = 7
	maximum = 41
Network latency average = 19.9091
	minimum = 7
	maximum = 41
Slowest packet = 11845
Flit latency average = 20.0304
	minimum = 7
	maximum = 41
Slowest flit = 11845
Fragmentation average = 0
	minimum = 0
	maximum = 0
Injected packet rate average = 0.049625
	minimum = 0.034 (at node 9)
	maximum = 0.064 (at node 2)
Accepted packet rate average = 0.049375
	minimum = 0.032 (at node 8)
	maximum = 0.068 (at node 0)
Injected flit rate average = 0.049625
	minimum = 0.034 (at node 9)
	maximum = 0.064 (at node 2)
Accepted flit rate average= 0.049375
	minimum = 0.032 (at node 8)
	maximum = 0.068 (at node 0)
Injected packet length average = 1
Accepted packet length average = 1
Total in-flight flits = 12 (12 measured)
latency change    = 0.0104828
throughput change = 0.0101266
Class 0:
Packet latency average = 20.0619
	minimum = 7
	maximum = 51
Network latency average = 20.0619
	minimum = 7
	maximum = 51
Slowest packet = 12294
Flit latency average = 20.121
	minimum = 7
	maximum = 51
Slowest flit = 12294
Fragmentation average = 0
	minimum = 0
	maximum = 0
Injected packet rate average = 0.04925
	minimum = 0.038 (at node 12)
	maximum = 0.061 (at node 15)
Accepted packet rate average = 0.0490625
	minimum = 0.037 (at node 8)
	maximum = 0.062 (at node 0)
Injected flit rate average = 0.04925
	minimum = 0.038 (at node 12)
	maximum = 0.061 (at node 15)
Accepted flit rate average= 0.0490625
	minimum = 0.037 (at node 8)
	maximum = 0.062 (at node 0)
Injected packet length average = 1
Accepted packet length average = 1
Total in-flight flits = 13 (13 measured)
latency change    = 0.00761864
throughput change = 0.00636943
Class 0:
Packet latency average = 19.9983
	minimum = 7
	maximum = 51
Network latency average = 19.9983
	minimum = 7
	maximum = 51
Slowest packet = 12294
Flit latency average = 20.0378
	minimum = 7
	maximum = 51
Slowest flit = 12294
Fragmentation average = 0
	minimum = 0
	maximum = 0
Injected packet rate average = 0.049625
	minimum = 0.038 (at node 0)
	maximum = 0.0593333 (at node 15)
Accepted packet rate average = 0.0495833
	minimum = 0.0393333 (at node 12)
	maximum = 0.062 (at node 0)
Injected flit rate average = 0.049625
	minimum = 0.038 (at node 0)
	maximum = 0.0593333 (at node 15)
Accepted flit rate average= 0.0495833
	minimum = 0.0393333 (at node 12)
	maximum = 0.062 (at node 0)
Injected packet length average = 1
Accepted packet length average = 1
Total in-flight flits = 11 (11 measured)
latency change    = 0.00318179
throughput change = 0.0105042
Draining all recorded packets ...
Draining remaining packets ...
Time taken is 3051 cycles
Class 0:
Packet latency average = 19.2033
	minimum = 7
	maximum = 41
Network latency average = 19.2033
	minimum = 7
	maximum = 41
Slowest packet = 12948
Flit latency average = 19.2033
	minimum = 7
	maximum = 41
Slowest flit = 12948
Fragmentation average = 0
	minimum = 0
	maximum = 0
Injected packet rate average = 0.046625
	minimum = 0.028 (at node 13)
	maximum = 0.062 (at node 5)
Accepted packet rate average = 0.0455
	minimum = 0.032 (at node 11)
	maximum = 0.058 (at node 6)
Injected flit rate average = 0.046625
	minimum = 0.028 (at node 13)
	maximum = 0.062 (at node 5)
Accepted flit rate average= 0.0455
	minimum = 0.032 (at node 11)
	maximum = 0.058 (at node 6)
Injected packet length average = 1
Accepted packet length average = 1
Total in-flight flits = 9 (0 measured)
latency change    = 1
throughput change = 1
Class 0:
Packet latency average = 19.6348
	minimum = 7
	maximum = 45
Network latency average = 19.6348
	minimum = 7
	maximum = 45
Slowest packet = 13422
Flit latency average = 19.6348
	minimum = 7
	maximum = 45
Slowest flit = 13422
Fragmentation average = 0
	minimum = 0
	maximum = 0
Injected packet rate average = 0.0495625
	minimum = 0.041 (at node 7)
	maximum = 0.058 (at node 0)
Accepted packet rate average = 0.0484375
	minimum = 0.035 (at node 2)
	maximum = 0.06 (at node 10)
Injected flit rate average = 0.0495625
	minimum = 0.041 (at node 7)
	maximum = 0.058 (at node 0)
Accepted flit rate average= 0.0484375
	minimum = 0.035 (at node 2)
	maximum = 0.06 (at node 10)
Injected packet length average = 1
Accepted packet length average = 1
Total in-flight flits = 18 (0 measured)
latency change    = 0.0219784
throughput change = 0.0606452
Class 0:
Packet latency average = 20.4607
	minimum = 7
	maximum = 57
Network latency average = 20.4607
	minimum = 7
	maximum = 57
Slowest packet = 13870
Flit latency average = 20.4607
	minimum = 7
	maximum = 57
Slowest flit = 13870
Fragmentation average = 0
	minimum = 0
	maximum = 0
Injected packet rate average = 0.044375
	minimum = 0.032 (at node 15)
	maximum = 0.062 (at node 12)
Accepted packet rate average = 0.0445
	minimum = 0.024 (at node 14)
	maximum = 0.06 (at node 10)
Injected flit rate average = 0.044375
	minimum = 0.032 (at node 15)
	maximum = 0.062 (at node 12)
Accepted flit rate average= 0.0445
	minimum = 0.024 (at node 14)
	maximum = 0.06 (at node 10)
Injected packet length average = 1
Accepted packet length average = 1
Total in-flight flits = 17 (0 measured)
latency change    = 0.0403621
throughput change = 0.0884831
Warmed up ...Time used is 1500 cycles
Class 0:
Packet latency average = 20.4005
	minimum = 7
	maximum = 42
Network latency average = 20.4005
	minimum = 7
	maximum = 42
Slowest packet = 14270
Flit latency average = 20.5789
	minimum = 7
	maximum = 42
Slowest flit = 14270
Fragmentation average = 0
	minimum = 0
	maximum = 0
Injected packet rate average = 0.05
	minimum = 0.03 (at node 10)
	maximum = 0.076 (at node 14)
Accepted packet rate average = 0.049875
	minimum = 0.03 (at node 14)
	maximum = 0.082 (at node 13)
Injected flit rate average = 0.05
	minimum = 0.03 (at node 10)
	maximum = 0.076 (at node 14)
Accepted flit rate average= 0.049875
	minimum = 0.03 (at node 14)
	maximum = 0.082 (at node 13)
Injected packet length average = 1
Accepted packet length average = 1
Total in-flight flits = 18 (18 measured)
latency change    = 0.00294848
throughput change = 0.107769
Class 0:
Packet latency average = 20.2404
	minimum = 7
	maximum = 56
Network latency average = 20.2404
	minimum = 7
	maximum = 56
Slowest packet = 14721
Flit latency average = 20.3301
	minimum = 7
	maximum = 56
Slowest flit = 14721
Fragmentation average = 0
	minimum = 0
	maximum = 0
Injected packet rate average = 0.051625
	minimum = 0.04 (at node 6)
	maximum = 0.062 (at node 7)
Accepted packet rate average = 0.0515
	minimum = 0.037 (at node 14)
	maximum = 0.07 (at node 13)
Injected flit rate average = 0.051625
	minimum = 0.04 (at node 6)
	maximum = 0.062 (at node 7)
Accepted flit rate average= 0.0515
	minimum = 0.037 (at node 14)
	maximum = 0.07 (at node 13)
Injected packet length average = 1
Accepted packet length average = 1
Total in-flight flits = 19 (19 measured)
latency change    = 0.00791126
throughput change = 0.0315534
Class 0:
Packet latency average = 20.4673
	minimum = 7
	maximum = 56
Network latency average = 20.4673
	minimum = 7
	maximum = 56
Slowest packet = 14721
Flit latency average = 20.5238
	minimum = 7
	maximum = 56
Slowest flit = 14721
Fragmentation average = 0
	minimum = 0
	maximum = 0
Injected packet rate average = 0.0515
	minimum = 0.0433333 (at node 5)
	maximum = 0.0606667 (at node 4)
Accepted packet rate average = 0.0517083
	minimum = 0.0393333 (at node 6)
	maximum = 0.0633333 (at node 13)
Injected flit rate average = 0.0515
	minimum = 0.0433333 (at node 5)
	maximum = 0.0606667 (at node 4)
Accepted flit rate average= 0.0517083
	minimum = 0.0393333 (at node 6)
	maximum = 0.0633333 (at node 13)
Injected packet length average = 1
Accepted packet length average = 1
Total in-flight flits = 12 (12 measured)
latency change    = 0.0110871
throughput change = 0.00402901
Class 0:
Packet latency average = 20.3734
	minimum = 7
	maximum = 56
Network latency average = 20.3734
	minimum = 7
	maximum = 56
Slowest packet = 14721
Flit latency average = 20.4171
	minimum = 7
	maximum = 56
Slowest flit = 14721
Fragmentation average = 0
	minimum = 0
	maximum = 0
Injected packet rate average = 0.0515313
	minimum = 0.042 (at node 5)
	maximum = 0.06 (at node 7)
Accepted packet rate average = 0.05125
	minimum = 0.04 (at node 6)
	maximum = 0.061 (at node 13)
Injected flit rate average = 0.0515313
	minimum = 0.042 (at node 5)
	maximum = 0.06 (at node 7)
Accepted flit rate average= 0.05125
	minimum = 0.04 (at node 6)
	maximum = 0.061 (at node 13)
Injected packet length average = 1
Accepted packet length average = 1
Total in-flight flits = 26 (26 measured)
latency change    = 0.0046108
throughput change = 0.00894309
Draining all recorded packets ...
Draining remaining packets ...
Time taken is 3559 cycles
Class 0:
Packet latency average = 20.4771
	minimum = 7
	maximum = 44
Network latency average = 20.4771
	minimum = 7
	maximum = 44
Slowest packet = 15856
Flit latency average = 20.4771
	minimum = 7
	maximum = 44
Slowest flit = 15856
Fragmentation average = 0
	minimum = 0
	maximum = 0
Injected packet rate average = 0.049
	minimum = 0.04 (at node 11)
	maximum = 0.058 (at node 1)
Accepted packet rate average = 0.046375
	minimum = 0.032 (at node 10)
	maximum = 0.058 (at node 4)
Injected flit rate average = 0.049
	minimum = 0.04 (at node 11)
	maximum = 0.058 (at node 1)
Accepted flit rate average= 0.046375
	minimum = 0.032 (at node 10)
	maximum = 0.058 (at node 4)
Injected packet length average = 1
Accepted packet length average = 1
Total in-flight flits = 21 (0 measured)
latency change    = 1
throughput change = 1
Class 0:
Packet latency average = 20.9642
	minimum = 7
	maximum = 101
Network latency average = 20.9642
	minimum = 7
	maximum = 101
Slowest packet = 16246
Flit latency average = 20.9642
	minimum = 7
	maximum = 101
Slowest flit = 16246
Fragmentation average = 0
	minimum = 0
	maximum = 0
Injected packet rate average = 0.052
	minimum = 0.041 (at node 15)
	maximum = 0.06 (at node 7)
Accepted packet rate average = 0.050625
	minimum = 0.036 (at node 9)
	maximum = 0.067 (at node 6)
Injected flit rate average = 0.052
	minimum = 0.041 (at node 15)
	maximum = 0.06 (at node 7)
Accepted flit rate average= 0.050625
	minimum = 0.036 (at node 9)
	maximum = 0.067 (at node 6)
Injected packet length average = 1
Accepted packet length average = 1
Total in-flight flits = 22 (0 measured)
latency change    = 0.0232353
throughput change = 0.0839506
Class 0:
Packet latency average = 21.0024
	minimum = 7
	maximum = 72
Network latency average = 20.9928
	minimum = 7
	maximum = 72
Slowest packet = 16754
Flit latency average = 20.9928
	minimum = 7
	maximum = 72
Slowest flit = 16754
Fragmentation average = 0
	minimum = 0
	maximum = 0
Injected packet rate average = 0.051375
	minimum = 0.026 (at node 5)
	maximum = 0.078 (at node 9)
Accepted packet rate average = 0.052
	minimum = 0.034 (at node 4)
	maximum = 0.064 (at node 1)
Injected flit rate average = 0.051375
	minimum = 0.026 (at node 5)
	maximum = 0.078 (at node 9)
Accepted flit rate average= 0.052
	minimum = 0.034 (at node 4)
	maximum = 0.064 (at node 1)
Injected packet length average = 1
Accepted packet length average = 1
Total in-flight flits = 17 (0 measured)
latency change    = 0.00181914
throughput change = 0.0264423
Warmed up ...Time used is 1500 cycles
Class 0:
Packet latency average = 20.9055
	minimum = 7
	maximum = 47
Network latency average = 20.9055
	minimum = 7
	maximum = 47
Slowest packet = 17267
Flit latency average = 21.0048
	minimum = 7
	maximum = 47
Slowest flit = 17267
Fragmentation average = 0
	minimum = 0
	maximum = 0
Injected packet rate average = 0.052625
	minimum = 0.032 (at node 11)
	maximum = 0.07 (at node 5)
Accepted packet rate average = 0.052375
	minimum = 0.042 (at node 9)
	maximum = 0.066 (at node 4)
Injected flit rate average = 0.052625
	minimum = 0.032 (at node 11)
	maximum = 0.07 (at node 5)
Accepted flit rate average= 0.052375
	minimum = 0.042 (at node 9)
	maximum = 0.066 (at node 4)
Injected packet length average = 1
Accepted packet length average = 1
Total in-flight flits = 19 (19 measured)
latency change    = 0.00463664
throughput change = 0.0071599
Class 0:
Packet latency average = 20.2889
	minimum = 7
	maximum = 51
Network latency average = 20.2889
	minimum = 7
	maximum = 51
Slowest packet = 17469
Flit latency average = 20.3524
	minimum = 7
	maximum = 51
Slowest flit = 17469
Fragmentation average = 0
	minimum = 0
	maximum = 0
Injected packet rate average = 0.0509375
	minimum = 0.038 (at node 11)
	maximum = 0.064 (at node 13)
Accepted packet rate average = 0.05125
	minimum = 0.038 (at node 9)
	maximum = 0.064 (at node 4)
Injected flit rate average = 0.0509375
	minimum = 0.038 (at node 11)
	maximum = 0.064 (at node 13)
Accepted flit rate average= 0.05125
	minimum = 0.038 (at node 9)
	maximum = 0.064 (at node 4)
Injected packet length average = 1
Accepted packet length average = 1
Total in-flight flits = 12 (12 measured)
latency change    = 0.0303888
throughput change = 0.0219512
Class 0:
Packet latency average = 20.5418
	minimum = 7
	maximum = 51
Network latency average = 20.5418
	minimum = 7
	maximum = 51
Slowest packet = 17469
Flit latency average = 20.5804
	minimum = 7
	maximum = 51
Slowest flit = 17469
Fragmentation average = 0
	minimum = 0
	maximum = 0
Injected packet rate average = 0.0512917
	minimum = 0.0446667 (at node 1)
	maximum = 0.0606667 (at node 13)
Accepted packet rate average = 0.0515417
	minimum = 0.0426667 (at node 9)
	maximum = 0.058 (at node 3)
Injected flit rate average = 0.0512917
	minimum = 0.0446667 (at node 1)
	maximum = 0.0606667 (at node 13)
Accepted flit rate average= 0.0515417
	minimum = 0.0426667 (at node 9)
	maximum = 0.058 (at node 3)
Injected packet length average = 1
Accepted packet length average = 1
Total in-flight flits = 11 (11 measured)
latency change    = 0.0123108
throughput change = 0.00565885
Draining all recorded packets ...
Draining remaining packets ...
Time taken is 3046 cycles
Class 0:
Packet latency average = 20.1005
	minimum = 7
	maximum = 49
Network latency average = 20.1005
	minimum = 7
	maximum = 49
Slowest packet = 18256
Flit latency average = 20.1005
	minimum = 7
	maximum = 49
Slowest flit = 18256
Fragmentation average = 0
	minimum = 0
	maximum = 0
Injected packet rate average = 0.051125
	minimum = 0.038 (at node 2)
	maximum = 0.064 (at node 7)
Accepted packet rate average = 0.0485
	minimum = 0.03 (at node 2)
	maximum = 0.068 (at node 11)
Injected flit rate average = 0.051125
	minimum = 0.038 (at node 2)
	maximum = 0.064 (at node 7)
Accepted flit rate average= 0.0485
	minimum = 0.03 (at node 2)
	maximum = 0.068 (at node 11)
Injected packet length average = 1
Accepted packet length average = 1
Total in-flight flits = 21 (0 measured)
latency change    = 1
throughput change = 1
Class 0:
Packet latency average = 20.2959
	minimum = 7
	maximum = 49
Network latency average = 20.2959
	minimum = 7
	maximum = 49
Slowest packet = 18256
Flit latency average = 20.2959
	minimum = 7
	maximum = 49
Slowest flit = 18256
Fragmentation average = 0
	minimum = 0
	maximum = 0
Injected packet rate average = 0.04725
	minimum = 0.039 (at node 0)
	maximum = 0.058 (at node 10)
Accepted packet rate average = 0.04625
	minimum = 0.035 (at node 2)
	maximum = 0.069 (at node 11)
Injected flit rate average = 0.04725
	minimum = 0.039 (at node 0)
	maximum = 0.058 (at node 10)
Accepted flit rate average= 0.04625
	minimum = 0.035 (at node 2)
	maximum = 0.069 (at node 11)
Injected packet length average = 1
Accepted packet length average = 1
Total in-flight flits = 16 (0 measured)
latency change    = 0.00962904
throughput change = 0.0486486
Class 0:
Packet latency average = 20.3381
	minimum = 7
	maximum = 58
Network latency average = 20.3381
	minimum = 7
	maximum = 58
Slowest packet = 19042
Flit latency average = 20.3381
	minimum = 7
	maximum = 58
Slowest flit = 19042
Fragmentation average = 0
	minimum = 0
	maximum = 0
Injected packet rate average = 0.052
	minimum = 0.04 (at node 6)
	maximum = 0.066 (at node 3)
Accepted packet rate average = 0.052125
	minimum = 0.032 (at node 12)
	maximum = 0.066 (at node 4)
Injected flit rate average = 0.052
	minimum = 0.04 (at node 6)
	maximum = 0.066 (at node 3)
Accepted flit rate average= 0.052125
	minimum = 0.032 (at node 12)
	maximum = 0.066 (at node 4)
Injected packet length average = 1
Accepted packet length average = 1
Total in-flight flits = 15 (0 measured)
latency change    = 0.00207411
throughput change = 0.11271
Warmed up ...Time used is 1500 cycles
Class 0:
Packet latency average = 19.659
	minimum = 7
	maximum = 62
Network latency average = 19.659
	minimum = 7
	maximum = 62
Slowest packet = 19452
Flit latency average = 19.8554
	minimum = 7
	maximum = 62
Slowest flit = 19452
Fragmentation average = 0
	minimum = 0
	maximum = 0
Injected packet rate average = 0.051125
	minimum = 0.038 (at node 14)
	maximum = 0.064 (at node 12)
Accepted packet rate average = 0.051
	minimum = 0.038 (at node 11)
	maximum = 0.066 (at node 9)
Injected flit rate average = 0.051125
	minimum = 0.038 (at node 14)
	maximum = 0.064 (at node 12)
Accepted flit rate average= 0.051
	minimum = 0.038 (at node 11)
	maximum = 0.066 (at node 9)
Injected packet length average = 1
Accepted packet length average = 1
Total in-flight flits = 16 (16 measured)
latency change    = 0.0345437
throughput change = 0.0220588
Class 0:
Packet latency average = 19.7393
	minimum = 7
	maximum = 62
Network latency average = 19.7393
	minimum = 7
	maximum = 62
Slowest packet = 19452
Flit latency average = 19.8364
	minimum = 7
	maximum = 62
Slowest flit = 19452
Fragmentation average = 0
	minimum = 0
	maximum = 0
Injected packet rate average = 0.050625
	minimum = 0.033 (at node 15)
	maximum = 0.064 (at node 13)
Accepted packet rate average = 0.0508125
	minimum = 0.041 (at node 10)
	maximum = 0.064 (at node 4)
Injected flit rate average = 0.050625
	minimum = 0.033 (at node 15)
	maximum = 0.064 (at node 13)
Accepted flit rate average= 0.0508125
	minimum = 0.041 (at node 10)
	maximum = 0.064 (at node 4)
Injected packet length average = 1
Accepted packet length average = 1
Total in-flight flits = 12 (12 measured)
latency change    = 0.00406879
throughput change = 0.00369004
Class 0:
Packet latency average = 19.7849
	minimum = 7
	maximum = 62
Network latency average = 19.7849
	minimum = 7
	maximum = 62
Slowest packet = 19452
Flit latency average = 19.8505
	minimum = 7
	maximum = 62
Slowest flit = 19452
Fragmentation average = 0
	minimum = 0
	maximum = 0
Injected packet rate average = 0.0495833
	minimum = 0.036 (at node 15)
	maximum = 0.0626667 (at node 11)
Accepted packet rate average = 0.049625
	minimum = 0.0413333 (at node 2)
	maximum = 0.0633333 (at node 4)
Injected flit rate average = 0.0495833
	minimum = 0.036 (at node 15)
	maximum = 0.0626667 (at node 11)
Accepted flit rate average= 0.049625
	minimum = 0.0413333 (at node 2)
	maximum = 0.0633333 (at node 4)
Injected packet length average = 1
Accepted packet length average = 1
Total in-flight flits = 14 (14 measured)
latency change    = 0.00230053
throughput change = 0.0239295
Draining all recorded packets ...
Draining remaining packets ...
Time taken is 3034 cycles
Class 0:
Packet latency average = 20.1928
	minimum = 7
	maximum = 42
Network latency average = 20.1928
	minimum = 7
	maximum = 42
Slowest packet = 20625
Flit latency average = 20.1928
	minimum = 7
	maximum = 42
Slowest flit = 20625
Fragmentation average = 0
	minimum = 0
	maximum = 0
Injected packet rate average = 0.047125
	minimum = 0.034 (at node 2)
	maximum = 0.068 (at node 7)
Accepted packet rate average = 0.045375
	minimum = 0.034 (at node 12)
	maximum = 0.064 (at node 2)
Injected flit rate average = 0.047125
	minimum = 0.034 (at node 2)
	maximum = 0.068 (at node 7)
Accepted flit rate average= 0.045375
	minimum = 0.034 (at node 12)
	maximum = 0.064 (at node 2)
Injected packet length average = 1
Accepted packet length average = 1
Total in-flight flits = 14 (0 measured)
latency change    = 1
throughput change = 1
Class 0:
Packet latency average = 20.474
	minimum = 7
	maximum = 45
Network latency average = 20.474
	minimum = 7
	maximum = 45
Slowest packet = 21063
Flit latency average = 20.474
	minimum = 7
	maximum = 45
Slowest flit = 21063
Fragmentation average = 0
	minimum = 0
	maximum = 0
Injected packet rate average = 0.0475625
	minimum = 0.036 (at node 6)
	maximum = 0.072 (at node 7)
Accepted packet rate average = 0.0469375
	minimum = 0.034 (at node 0)
	maximum = 0.063 (at node 2)
Injected flit rate average = 0.0475625
	minimum = 0.036 (at node 6)
	maximum = 0.072 (at node 7)
Accepted flit rate average= 0.0469375
	minimum = 0.034 (at node 0)
	maximum = 0.063 (at node 2)
Injected packet length average = 1
Accepted packet length average = 1
Total in-flight flits = 10 (0 measured)
latency change    = 0.0137343
throughput change = 0.0332889
Class 0:
Packet latency average = 21.451
	minimum = 7
	maximum = 59
Network latency average = 21.451
	minimum = 7
	maximum = 59
Slowest packet = 21643
Flit latency average = 21.451
	minimum = 7
	maximum = 59
Slowest flit = 21643
Fragmentation average = 0
	minimum = 0
	maximum = 0
Injected packet rate average = 0.04875
	minimum = 0.028 (at node 5)
	maximum = 0.062 (at node 4)
Accepted packet rate average = 0.0485
	minimum = 0.036 (at node 0)
	maximum = 0.064 (at node 4)
Injected flit rate average = 0.04875
	minimum = 0.028 (at node 5)
	maximum = 0.062 (at node 4)
Accepted flit rate average= 0.0485
	minimum = 0.036 (at node 0)
	maximum = 0.064 (at node 4)
Injected packet length average = 1
Accepted packet length average = 1
Total in-flight flits = 12 (0 measured)
latency change    = 0.0455454
throughput change = 0.0322165
Warmed up ...Time used is 1500 cycles
Class 0:
Packet latency average = 19.6
	minimum = 7
	maximum = 42
Network latency average = 19.6
	minimum = 7
	maximum = 42
Slowest packet = 21831
Flit latency average = 19.5796
	minimum = 7
	maximum = 42
Slowest flit = 21831
Fragmentation average = 0
	minimum = 0
	maximum = 0
Injected packet rate average = 0.05025
	minimum = 0.036 (at node 7)
	maximum = 0.064 (at node 5)
Accepted packet rate average = 0.05025
	minimum = 0.036 (at node 15)
	maximum = 0.062 (at node 3)
Injected flit rate average = 0.05025
	minimum = 0.036 (at node 7)
	maximum = 0.064 (at node 5)
Accepted flit rate average= 0.05025
	minimum = 0.036 (at node 15)
	maximum = 0.062 (at node 3)
Injected packet length average = 1
Accepted packet length average = 1
Total in-flight flits = 12 (12 measured)
latency change    = 0.0944404
throughput change = 0.0348259
Class 0:
Packet latency average = 20.0052
	minimum = 7
	maximum = 44
Network latency average = 20.0052
	minimum = 7
	maximum = 44
Slowest packet = 22140
Flit latency average = 19.9886
	minimum = 7
	maximum = 44
Slowest flit = 22140
Fragmentation average = 0
	minimum = 0
	maximum = 0
Injected packet rate average = 0.0493125
	minimum = 0.038 (at node 7)
	maximum = 0.059 (at node 12)
Accepted packet rate average = 0.0491875
	minimum = 0.038 (at node 5)
	maximum = 0.058 (at node 3)
Injected flit rate average = 0.0493125
	minimum = 0.038 (at node 7)
	maximum = 0.059 (at node 12)
Accepted flit rate average= 0.0491875
	minimum = 0.038 (at node 5)
	maximum = 0.058 (at node 3)
Injected packet length average = 1
Accepted packet length average = 1
Total in-flight flits = 14 (14 measured)
latency change    = 0.0202528
throughput change = 0.021601
Class 0:
Packet latency average = 19.884
	minimum = 7
	maximum = 48
Network latency average = 19.884
	minimum = 7
	maximum = 48
Slowest packet = 22540
Flit latency average = 19.8744
	minimum = 7
	maximum = 48
Slowest flit = 22540
Fragmentation average = 0
	minimum = 0
	maximum = 0
Injected packet rate average = 0.050375
	minimum = 0.0406667 (at node 2)
	maximum = 0.0566667 (at node 4)
Accepted packet rate average = 0.0500833
	minimum = 0.0406667 (at node 12)
	maximum = 0.0586667 (at node 9)
Injected flit rate average = 0.050375
	minimum = 0.0406667 (at node 2)
	maximum = 0.0566667 (at node 4)
Accepted flit rate average= 0.0500833
	minimum = 0.0406667 (at node 12)
	maximum = 0.0586667 (at node 9)
Injected packet length average = 1
Accepted packet length average = 1
Total in-flight flits = 19 (19 measured)
latency change    = 0.00609171
throughput change = 0.0178869
Class 0:
Packet latency average = 19.8993
	minimum = 7
	maximum = 53
Network latency average = 19.8993
	minimum = 7
	maximum = 53
Slowest packet = 23111
Flit latency average = 19.8918
	minimum = 7
	maximum = 53
Slowest flit = 23111
Fragmentation average = 0
	minimum = 0
	maximum = 0
Injected packet rate average = 0.0493125
	minimum = 0.037 (at node 7)
	maximum = 0.0565 (at node 9)
Accepted packet rate average = 0.0490937
	minimum = 0.038 (at node 12)
	maximum = 0.0595 (at node 9)
Injected flit rate average = 0.0493125
	minimum = 0.037 (at node 7)
	maximum = 0.0565 (at node 9)
Accepted flit rate average= 0.0490937
	minimum = 0.038 (at node 12)
	maximum = 0.0595 (at node 9)
Injected packet length average = 1
Accepted packet length average = 1
Total in-flight flits = 19 (19 measured)
latency change    = 0.000766902
throughput change = 0.020157
Draining all recorded packets ...
Draining remaining packets ...
Time taken is 3559 cycles
Class 0:
Packet latency average = 20.4351
	minimum = 7
	maximum = 52
Network latency average = 20.4351
	minimum = 7
	maximum = 52
Slowest packet = 23709
Flit latency average = 20.4351
	minimum = 7
	maximum = 52
Slowest flit = 23709
Fragmentation average = 0
	minimum = 0
	maximum = 0
Injected packet rate average = 0.050375
	minimum = 0.04 (at node 9)
	maximum = 0.064 (at node 2)
Accepted packet rate average = 0.049125
	minimum = 0.034 (at node 0)
	maximum = 0.058 (at node 2)
Injected flit rate average = 0.050375
	minimum = 0.04 (at node 9)
	maximum = 0.064 (at node 2)
Accepted flit rate average= 0.049125
	minimum = 0.034 (at node 0)
	maximum = 0.058 (at node 2)
Injected packet length average = 1
Accepted packet length average = 1
Total in-flight flits = 10 (0 measured)
latency change    = 1
throughput change = 1
Class 0:
Packet latency average = 20.3557
	minimum = 7
	maximum = 52
Network latency average = 20.3557
	minimum = 7
	maximum = 52
Slowest packet = 23709
Flit latency average = 20.3557
	minimum = 7
	maximum = 52
Slowest flit = 23709
Fragmentation average = 0
	minimum = 0
	maximum = 0
Injected packet rate average = 0.0483125
	minimum = 0.035 (at node 9)
	maximum = 0.058 (at node 14)
Accepted packet rate average = 0.0474375
	minimum = 0.031 (at node 15)
	maximum = 0.059 (at node 1)
Injected flit rate average = 0.0483125
	minimum = 0.035 (at node 9)
	maximum = 0.058 (at node 14)
Accepted flit rate average= 0.0474375
	minimum = 0.031 (at node 15)
	maximum = 0.059 (at node 1)
Injected packet length average = 1
Accepted packet length average = 1
Total in-flight flits = 14 (0 measured)
latency change    = 0.0038998
throughput change = 0.0355731
Class 0:
Packet latency average = 21.4279
	minimum = 7
	maximum = 46
Network latency average = 21.4279
	minimum = 7
	maximum = 46
Slowest packet = 24440
Flit latency average = 21.4279
	minimum = 7
	maximum = 46
Slowest flit = 24440
Fragmentation average = 0
	minimum = 0
	maximum = 0
Injected packet rate average = 0.050625
	minimum = 0.038 (at node 1)
	maximum = 0.066 (at node 3)
Accepted packet rate average = 0.05025
	minimum = 0.03 (at node 6)
	maximum = 0.068 (at node 0)
Injected flit rate average = 0.050625
	minimum = 0.038 (at node 1)
	maximum = 0.066 (at node 3)
Accepted flit rate average= 0.05025
	minimum = 0.03 (at node 6)
	maximum = 0.068 (at node 0)
Injected packet length average = 1
Accepted packet length average = 1
Total in-flight flits = 17 (0 measured)
latency change    = 0.0500344
throughput change = 0.0559701
Warmed up ...Time used is 1500 cycles
Class 0:
Packet latency average = 20.0201
	minimum = 7
	maximum = 49
Network latency average = 20.0201
	minimum = 7
	maximum = 49
Slowest packet = 24596
Flit latency average = 20.2169
	minimum = 7
	maximum = 49
Slowest flit = 24596
Fragmentation average = 0
	minimum = 0
	maximum = 0
Injected packet rate average = 0.051625
	minimum = 0.032 (at node 10)
	maximum = 0.074 (at node 14)
Accepted packet rate average = 0.051875
	minimum = 0.036 (at node 5)
	maximum = 0.074 (at node 10)
Injected flit rate average = 0.051625
	minimum = 0.032 (at node 10)
	maximum = 0.074 (at node 14)
Accepted flit rate average= 0.051875
	minimum = 0.036 (at node 5)
	maximum = 0.074 (at node 10)
Injected packet length average = 1
Accepted packet length average = 1
Total in-flight flits = 15 (15 measured)
latency change    = 0.0703173
throughput change = 0.0313253
Class 0:
Packet latency average = 19.8922
	minimum = 7
	maximum = 49
Network latency average = 19.8922
	minimum = 7
	maximum = 49
Slowest packet = 24596
Flit latency average = 19.9951
	minimum = 7
	maximum = 49
Slowest flit = 24596
Fragmentation average = 0
	minimum = 0
	maximum = 0
Injected packet rate average = 0.050875
	minimum = 0.045 (at node 3)
	maximum = 0.059 (at node 14)
Accepted packet rate average = 0.0509375
	minimum = 0.039 (at node 4)
	maximum = 0.067 (at node 10)
Injected flit rate average = 0.050875
	minimum = 0.045 (at node 3)
	maximum = 0.059 (at node 14)
Accepted flit rate average= 0.0509375
	minimum = 0.039 (at node 4)
	maximum = 0.067 (at node 10)
Injected packet length average = 1
Accepted packet length average = 1
Total in-flight flits = 16 (16 measured)
latency change    = 0.00642813
throughput change = 0.0184049
Class 0:
Packet latency average = 20.0329
	minimum = 7
	maximum = 49
Network latency average = 20.0329
	minimum = 7
	maximum = 49
Slowest packet = 24596
Flit latency average = 20.0989
	minimum = 7
	maximum = 49
Slowest flit = 24596
Fragmentation average = 0
	minimum = 0
	maximum = 0
Injected packet rate average = 0.0512083
	minimum = 0.0446667 (at node 8)
	maximum = 0.0606667 (at node 14)
Accepted packet rate average = 0.051375
	minimum = 0.0413333 (at node 7)
	maximum = 0.0633333 (at node 10)
Injected flit rate average = 0.0512083
	minimum = 0.0446667 (at node 8)
	maximum = 0.0606667 (at node 14)
Accepted flit rate average= 0.051375
	minimum = 0.0413333 (at node 7)
	maximum = 0.0633333 (at node 10)
Injected packet length average = 1
Accepted packet length average = 1
Total in-flight flits = 13 (13 measured)
latency change    = 0.00702166
throughput change = 0.00851582
Class 0:
Packet latency average = 19.9458
	minimum = 7
	maximum = 49
Network latency average = 19.9458
	minimum = 7
	maximum = 49
Slowest packet = 24596
Flit latency average = 19.9963
	minimum = 7
	maximum = 49
Slowest flit = 24596
Fragmentation average = 0
	minimum = 0
	maximum = 0
Injected packet rate average = 0.051125
	minimum = 0.044 (at node 12)
	maximum = 0.059 (at node 14)
Accepted packet rate average = 0.0512813
	minimum = 0.0425 (at node 7)
	maximum = 0.0605 (at node 3)
Injected flit rate average = 0.051125
	minimum = 0.044 (at node 12)
	maximum = 0.059 (at node 14)
Accepted flit rate average= 0.0512813
	minimum = 0.0425 (at node 7)
	maximum = 0.0605 (at node 3)
Injected packet length average = 1
Accepted packet length average = 1
Total in-flight flits = 12 (12 measured)
latency change    = 0.00436593
throughput change = 0.00182815
Draining all recorded packets ...
Draining remaining packets ...
Time taken is 3557 cycles
Class 0:
Packet latency average = 21.0763
	minimum = 7
	maximum = 67
Network latency average = 21.0763
	minimum = 7
	maximum = 67
Slowest packet = 26386
Flit latency average = 21.0763
	minimum = 7
	maximum = 67
Slowest flit = 26386
Fragmentation average = 0
	minimum = 0
	maximum = 0
Injected packet rate average = 0.05075
	minimum = 0.03 (at node 9)
	maximum = 0.07 (at node 14)
Accepted packet rate average = 0.0475
	minimum = 0.036 (at node 1)
	maximum = 0.064 (at node 6)
Injected flit rate average = 0.05075
	minimum = 0.03 (at node 9)
	maximum = 0.07 (at node 14)
Accepted flit rate average= 0.0475
	minimum = 0.036 (at node 1)
	maximum = 0.064 (at node 6)
Injected packet length average = 1
Accepted packet length average = 1
Total in-flight flits = 26 (0 measured)
latency change    = 1
throughput change = 1
Class 0:
Packet latency average = 20.5691
	minimum = 7
	maximum = 67
Network latency average = 20.5691
	minimum = 7
	maximum = 67
Slowest packet = 26386
Flit latency average = 20.5691
	minimum = 7
	maximum = 67
Slowest flit = 26386
Fragmentation average = 0
	minimum = 0
	maximum = 0
Injected packet rate average = 0.0495625
	minimum = 0.035 (at node 4)
	maximum = 0.063 (at node 14)
Accepted packet rate average = 0.048875
	minimum = 0.035 (at node 14)
	maximum = 0.063 (at node 11)
Injected flit rate average = 0.0495625
	minimum = 0.035 (at node 4)
	maximum = 0.063 (at node 14)
Accepted flit rate average= 0.048875
	minimum = 0.035 (at node 14)
	maximum = 0.063 (at node 11)
Injected packet length average = 1
Accepted packet length average = 1
Total in-flight flits = 11 (0 measured)
latency change    = 0.0246614
throughput change = 0.028133
Class 0:
Packet latency average = 20.4741
	minimum = 7
	maximum = 49
Network latency average = 20.4741
	minimum = 7
	maximum = 49
Slowest packet = 26976
Flit latency average = 20.4741
	minimum = 7
	maximum = 49
Slowest flit = 26976
Fragmentation average = 0
	minimum = 0
	maximum = 0
Injected packet rate average = 0.04625
	minimum = 0.038 (at node 0)
	maximum = 0.064 (at node 12)
Accepted packet rate average = 0.045875
	minimum = 0.032 (at node 13)
	maximum = 0.058 (at node 4)
Injected flit rate average = 0.04625
	minimum = 0.038 (at node 0)
	maximum = 0.064 (at node 12)
Accepted flit rate average= 0.045875
	minimum = 0.032 (at node 13)
	maximum = 0.058 (at node 4)
Injected packet length average = 1
Accepted packet length average = 1
Total in-flight flits = 14 (0 measured)
latency change    = 0.00463704
throughput change = 0.0653951
Warmed up ...Time used is 1500 cycles
Class 0:
Packet latency average = 20.8117
	minimum = 7
	maximum = 73
Network latency average = 20.8117
	minimum = 7
	maximum = 73
Slowest packet = 27394
Flit latency average = 20.8722
	minimum = 7
	maximum = 73
Slowest flit = 27394
Fragmentation average = 0
	minimum = 0
	maximum = 0
Injected packet rate average = 0.05025
	minimum = 0.038 (at node 5)
	maximum = 0.068 (at node 9)
Accepted packet rate average = 0.050875
	minimum = 0.03 (at node 4)
	maximum = 0.07 (at node 7)
Injected flit rate average = 0.05025
	minimum = 0.038 (at node 5)
	maximum = 0.068 (at node 9)
Accepted flit rate average= 0.050875
	minimum = 0.03 (at node 4)
	maximum = 0.07 (at node 7)
Injected packet length average = 1
Accepted packet length average = 1
Total in-flight flits = 9 (9 measured)
latency change    = 0.0162212
throughput change = 0.0982801
Class 0:
Packet latency average = 20.4848
	minimum = 7
	maximum = 73
Network latency average = 20.4848
	minimum = 7
	maximum = 73
Slowest packet = 27394
Flit latency average = 20.5197
	minimum = 7
	maximum = 73
Slowest flit = 27394
Fragmentation average = 0
	minimum = 0
	maximum = 0
Injected packet rate average = 0.052375
	minimum = 0.042 (at node 3)
	maximum = 0.063 (at node 9)
Accepted packet rate average = 0.0523125
	minimum = 0.035 (at node 1)
	maximum = 0.061 (at node 15)
Injected flit rate average = 0.052375
	minimum = 0.042 (at node 3)
	maximum = 0.063 (at node 9)
Accepted flit rate average= 0.0523125
	minimum = 0.035 (at node 1)
	maximum = 0.061 (at node 15)
Injected packet length average = 1
Accepted packet length average = 1
Total in-flight flits = 15 (15 measured)
latency change    = 0.0159578
throughput change = 0.0274791
Class 0:
Packet latency average = 20.3545
	minimum = 7
	maximum = 73
Network latency average = 20.3545
	minimum = 7
	maximum = 73
Slowest packet = 27394
Flit latency average = 20.3795
	minimum = 7
	maximum = 73
Slowest flit = 27394
Fragmentation average = 0
	minimum = 0
	maximum = 0
Injected packet rate average = 0.0518333
	minimum = 0.044 (at node 3)
	maximum = 0.0673333 (at node 9)
Accepted packet rate average = 0.0517083
	minimum = 0.0406667 (at node 1)
	maximum = 0.064 (at node 14)
Injected flit rate average = 0.0518333
	minimum = 0.044 (at node 3)
	maximum = 0.0673333 (at node 9)
Accepted flit rate average= 0.0517083
	minimum = 0.0406667 (at node 1)
	maximum = 0.064 (at node 14)
Injected packet length average = 1
Accepted packet length average = 1
Total in-flight flits = 17 (17 measured)
latency change    = 0.00640096
throughput change = 0.0116841
Class 0:
Packet latency average = 20.2134
	minimum = 7
	maximum = 73
Network latency average = 20.2134
	minimum = 7
	maximum = 73
Slowest packet = 27394
Flit latency average = 20.2337
	minimum = 7
	maximum = 73
Slowest flit = 27394
Fragmentation average = 0
	minimum = 0
	maximum = 0
Injected packet rate average = 0.0509063
	minimum = 0.046 (at node 2)
	maximum = 0.0625 (at node 9)
Accepted packet rate average = 0.0508125
	minimum = 0.0425 (at node 1)
	maximum = 0.0585 (at node 13)
Injected flit rate average = 0.0509063
	minimum = 0.046 (at node 2)
	maximum = 0.0625 (at node 9)
Accepted flit rate average= 0.0508125
	minimum = 0.0425 (at node 1)
	maximum = 0.0585 (at node 13)
Injected packet length average = 1
Accepted packet length average = 1
Total in-flight flits = 17 (17 measured)
latency change    = 0.00698169
throughput change = 0.0176302
Draining all recorded packets ...
Draining remaining packets ...
Time taken is 3562 cycles
Class 0:
Packet latency average = 20.1114
	minimum = 7
	maximum = 51
Network latency average = 20.1114
	minimum = 7
	maximum = 51
Slowest packet = 29043
Flit latency average = 20.1114
	minimum = 7
	maximum = 51
Slowest flit = 29043
Fragmentation average = 0
	minimum = 0
	maximum = 0
Injected packet rate average = 0.047125
	minimum = 0.03 (at node 1)
	maximum = 0.07 (at node 4)
Accepted packet rate average = 0.044875
	minimum = 0.032 (at node 1)
	maximum = 0.064 (at node 10)
Injected flit rate average = 0.047125
	minimum = 0.03 (at node 1)
	maximum = 0.07 (at node 4)
Accepted flit rate average= 0.044875
	minimum = 0.032 (at node 1)
	maximum = 0.064 (at node 10)
Injected packet length average = 1
Accepted packet length average = 1
Total in-flight flits = 18 (0 measured)
latency change    = 1
throughput change = 1
Class 0:
Packet latency average = 20.4343
	minimum = 7
	maximum = 51
Network latency average = 20.4343
	minimum = 7
	maximum = 51
Slowest packet = 29043
Flit latency average = 20.4343
	minimum = 7
	maximum = 51
Slowest flit = 29043
Fragmentation average = 0
	minimum = 0
	maximum = 0
Injected packet rate average = 0.0493125
	minimum = 0.034 (at node 10)
	maximum = 0.07 (at node 4)
Accepted packet rate average = 0.0485
	minimum = 0.039 (at node 1)
	maximum = 0.062 (at node 10)
Injected flit rate average = 0.0493125
	minimum = 0.034 (at node 10)
	maximum = 0.07 (at node 4)
Accepted flit rate average= 0.0485
	minimum = 0.039 (at node 1)
	maximum = 0.062 (at node 10)
Injected packet length average = 1
Accepted packet length average = 1
Total in-flight flits = 13 (0 measured)
latency change    = 0.0157998
throughput change = 0.0747423
Class 0:
Packet latency average = 20.0431
	minimum = 7
	maximum = 71
Network latency average = 20.0431
	minimum = 7
	maximum = 71
Slowest packet = 29816
Flit latency average = 20.0431
	minimum = 7
	maximum = 71
Slowest flit = 29816
Fragmentation average = 0
	minimum = 0
	maximum = 0
Injected packet rate average = 0.047125
	minimum = 0.028 (at node 2)
	maximum = 0.064 (at node 12)
Accepted packet rate average = 0.046375
	minimum = 0.034 (at node 12)
	maximum = 0.06 (at node 15)
Injected flit rate average = 0.047125
	minimum = 0.028 (at node 2)
	maximum = 0.064 (at node 12)
Accepted flit rate average= 0.046375
	minimum = 0.034 (at node 12)
	maximum = 0.06 (at node 15)
Injected packet length average = 1
Accepted packet length average = 1
Total in-flight flits = 19 (0 measured)
latency change    = 0.0195155
throughput change = 0.0458221
Warmed up ...Time used is 1500 cycles
Class 0:
Packet latency average = 20.3841
	minimum = 7
	maximum = 47
Network latency average = 20.3841
	minimum = 7
	maximum = 47
Slowest packet = 30217
Flit latency average = 20.485
	minimum = 7
	maximum = 47
Slowest flit = 30217
Fragmentation average = 0
	minimum = 0
	maximum = 0
Injected packet rate average = 0.053875
	minimum = 0.034 (at node 6)
	maximum = 0.07 (at node 11)
Accepted packet rate average = 0.054125
	minimum = 0.034 (at node 0)
	maximum = 0.076 (at node 14)
Injected flit rate average = 0.053875
	minimum = 0.034 (at node 6)
	maximum = 0.07 (at node 11)
Accepted flit rate average= 0.054125
	minimum = 0.034 (at node 0)
	maximum = 0.076 (at node 14)
Injected packet length average = 1
Accepted packet length average = 1
Total in-flight flits = 17 (17 measured)
latency change    = 0.0167254
throughput change = 0.143187
Class 0:
Packet latency average = 20.2057
	minimum = 7
	maximum = 48
Network latency average = 20.2057
	minimum = 7
	maximum = 48
Slowest packet = 30820
Flit latency average = 20.2608
	minimum = 7
	maximum = 48
Slowest flit = 30820
Fragmentation average = 0
	minimum = 0
	maximum = 0
Injected packet rate average = 0.052875
	minimum = 0.043 (at node 6)
	maximum = 0.061 (at node 11)
Accepted packet rate average = 0.0534375
	minimum = 0.047 (at node 1)
	maximum = 0.071 (at node 14)
Injected flit rate average = 0.052875
	minimum = 0.043 (at node 6)
	maximum = 0.061 (at node 11)
Accepted flit rate average= 0.0534375
	minimum = 0.047 (at node 1)
	maximum = 0.071 (at node 14)
Injected packet length average = 1
Accepted packet length average = 1
Total in-flight flits = 10 (10 measured)
latency change    = 0.00882503
throughput change = 0.0128655
Class 0:
Packet latency average = 19.8766
	minimum = 7
	maximum = 48
Network latency average = 19.8766
	minimum = 7
	maximum = 48
Slowest packet = 30820
Flit latency average = 19.9195
	minimum = 7
	maximum = 48
Slowest flit = 30820
Fragmentation average = 0
	minimum = 0
	maximum = 0
Injected packet rate average = 0.05175
	minimum = 0.044 (at node 15)
	maximum = 0.0606667 (at node 11)
Accepted packet rate average = 0.0517917
	minimum = 0.0466667 (at node 0)
	maximum = 0.0613333 (at node 14)
Injected flit rate average = 0.05175
	minimum = 0.044 (at node 15)
	maximum = 0.0606667 (at node 11)
Accepted flit rate average= 0.0517917
	minimum = 0.0466667 (at node 0)
	maximum = 0.0613333 (at node 14)
Injected packet length average = 1
Accepted packet length average = 1
Total in-flight flits = 18 (18 measured)
latency change    = 0.0165575
throughput change = 0.031778
Class 0:
Packet latency average = 19.8119
	minimum = 7
	maximum = 48
Network latency average = 19.8119
	minimum = 7
	maximum = 48
Slowest packet = 30820
Flit latency average = 19.8454
	minimum = 7
	maximum = 48
Slowest flit = 30820
Fragmentation average = 0
	minimum = 0
	maximum = 0
Injected packet rate average = 0.0508125
	minimum = 0.0455 (at node 2)
	maximum = 0.0615 (at node 11)
Accepted packet rate average = 0.0509375
	minimum = 0.045 (at node 7)
	maximum = 0.061 (at node 14)
Injected flit rate average = 0.0508125
	minimum = 0.0455 (at node 2)
	maximum = 0.0615 (at node 11)
Accepted flit rate average= 0.0509375
	minimum = 0.045 (at node 7)
	maximum = 0.061 (at node 14)
Injected packet length average = 1
Accepted packet length average = 1
Total in-flight flits = 15 (15 measured)
latency change    = 0.00326651
throughput change = 0.0167689
Draining all recorded packets ...
Draining remaining packets ...
Time taken is 3568 cycles
Class 0:
Packet latency average = 20.2355
	minimum = 7
	maximum = 66
Network latency average = 20.2355
	minimum = 7
	maximum = 66
Slowest packet = 31869
Flit latency average = 20.2355
	minimum = 7
	maximum = 66
Slowest flit = 31869
Fragmentation average = 0
	minimum = 0
	maximum = 0
Injected packet rate average = 0.04725
	minimum = 0.034 (at node 11)
	maximum = 0.078 (at node 14)
Accepted packet rate average = 0.045125
	minimum = 0.024 (at node 0)
	maximum = 0.064 (at node 11)
Injected flit rate average = 0.04725
	minimum = 0.034 (at node 11)
	maximum = 0.078 (at node 14)
Accepted flit rate average= 0.045125
	minimum = 0.024 (at node 0)
	maximum = 0.064 (at node 11)
Injected packet length average = 1
Accepted packet length average = 1
Total in-flight flits = 17 (0 measured)
latency change    = 1
throughput change = 1
Class 0:
Packet latency average = 20.6422
	minimum = 7
	maximum = 66
Network latency average = 20.6422
	minimum = 7
	maximum = 66
Slowest packet = 31869
Flit latency average = 20.6422
	minimum = 7
	maximum = 66
Slowest flit = 31869
Fragmentation average = 0
	minimum = 0
	maximum = 0
Injected packet rate average = 0.050625
	minimum = 0.038 (at node 11)
	maximum = 0.063 (at node 2)
Accepted packet rate average = 0.0494375
	minimum = 0.036 (at node 7)
	maximum = 0.065 (at node 12)
Injected flit rate average = 0.050625
	minimum = 0.038 (at node 11)
	maximum = 0.063 (at node 2)
Accepted flit rate average= 0.0494375
	minimum = 0.036 (at node 7)
	maximum = 0.065 (at node 12)
Injected packet length average = 1
Accepted packet length average = 1
Total in-flight flits = 19 (0 measured)
latency change    = 0.0197056
throughput change = 0.0872314
Class 0:
Packet latency average = 19.8844
	minimum = 7
	maximum = 42
Network latency average = 19.8844
	minimum = 7
	maximum = 42
Slowest packet = 32748
Flit latency average = 19.8844
	minimum = 7
	maximum = 42
Slowest flit = 32748
Fragmentation average = 0
	minimum = 0
	maximum = 0
Injected packet rate average = 0.046125
	minimum = 0.018 (at node 15)
	maximum = 0.066 (at node 0)
Accepted packet rate average = 0.0465
	minimum = 0.026 (at node 11)
	maximum = 0.066 (at node 2)
Injected flit rate average = 0.046125
	minimum = 0.018 (at node 15)
	maximum = 0.066 (at node 0)
Accepted flit rate average= 0.0465
	minimum = 0.026 (at node 11)
	maximum = 0.066 (at node 2)
Injected packet length average = 1
Accepted packet length average = 1
Total in-flight flits = 16 (0 measured)
latency change    = 0.0381111
throughput change = 0.063172
Warmed up ...Time used is 1500 cycles
Class 0:
Packet latency average = 20.9975
	minimum = 7
	maximum = 62
Network latency average = 20.9975
	minimum = 7
	maximum = 62
Slowest packet = 33207
Flit latency average = 21.1214
	minimum = 7
	maximum = 62
Slowest flit = 33207
Fragmentation average = 0
	minimum = 0
	maximum = 0
Injected packet rate average = 0.052125
	minimum = 0.036 (at node 2)
	maximum = 0.078 (at node 12)
Accepted packet rate average = 0.0525
	minimum = 0.038 (at node 1)
	maximum = 0.068 (at node 10)
Injected flit rate average = 0.052125
	minimum = 0.036 (at node 2)
	maximum = 0.078 (at node 12)
Accepted flit rate average= 0.0525
	minimum = 0.038 (at node 1)
	maximum = 0.068 (at node 10)
Injected packet length average = 1
Accepted packet length average = 1
Total in-flight flits = 13 (13 measured)
latency change    = 0.0530118
throughput change = 0.114286
Class 0:
Packet latency average = 20.352
	minimum = 7
	maximum = 62
Network latency average = 20.352
	minimum = 7
	maximum = 62
Slowest packet = 33207
Flit latency average = 20.428
	minimum = 7
	maximum = 62
Slowest flit = 33207
Fragmentation average = 0
	minimum = 0
	maximum = 0
Injected packet rate average = 0.0515625
	minimum = 0.04 (at node 1)
	maximum = 0.075 (at node 13)
Accepted packet rate average = 0.05125
	minimum = 0.04 (at node 8)
	maximum = 0.064 (at node 10)
Injected flit rate average = 0.0515625
	minimum = 0.04 (at node 1)
	maximum = 0.075 (at node 13)
Accepted flit rate average= 0.05125
	minimum = 0.04 (at node 8)
	maximum = 0.064 (at node 10)
Injected packet length average = 1
Accepted packet length average = 1
Total in-flight flits = 21 (21 measured)
latency change    = 0.0317185
throughput change = 0.0243902
Class 0:
Packet latency average = 20.3886
	minimum = 7
	maximum = 62
Network latency average = 20.3886
	minimum = 7
	maximum = 62
Slowest packet = 33207
Flit latency average = 20.4384
	minimum = 7
	maximum = 62
Slowest flit = 33207
Fragmentation average = 0
	minimum = 0
	maximum = 0
Injected packet rate average = 0.0517083
	minimum = 0.0426667 (at node 1)
	maximum = 0.07 (at node 13)
Accepted packet rate average = 0.0517083
	minimum = 0.0426667 (at node 8)
	maximum = 0.0653333 (at node 10)
Injected flit rate average = 0.0517083
	minimum = 0.0426667 (at node 1)
	maximum = 0.07 (at node 13)
Accepted flit rate average= 0.0517083
	minimum = 0.0426667 (at node 8)
	maximum = 0.0653333 (at node 10)
Injected packet length average = 1
Accepted packet length average = 1
Total in-flight flits = 16 (16 measured)
latency change    = 0.00179421
throughput change = 0.00886382
Class 0:
Packet latency average = 20.3016
	minimum = 7
	maximum = 62
Network latency average = 20.3016
	minimum = 7
	maximum = 62
Slowest packet = 33207
Flit latency average = 20.3398
	minimum = 7
	maximum = 62
Slowest flit = 33207
Fragmentation average = 0
	minimum = 0
	maximum = 0
Injected packet rate average = 0.0520313
	minimum = 0.0435 (at node 1)
	maximum = 0.062 (at node 13)
Accepted packet rate average = 0.0517813
	minimum = 0.041 (at node 8)
	maximum = 0.0615 (at node 11)
Injected flit rate average = 0.0520313
	minimum = 0.0435 (at node 1)
	maximum = 0.062 (at node 13)
Accepted flit rate average= 0.0517813
	minimum = 0.041 (at node 8)
	maximum = 0.0615 (at node 11)
Injected packet length average = 1
Accepted packet length average = 1
Total in-flight flits = 24 (24 measured)
latency change    = 0.00428173
throughput change = 0.00140817
Draining all recorded packets ...
Draining remaining packets ...
Time taken is 3569 cycles
Class 0:
Packet latency average = 19.4827
	minimum = 7
	maximum = 46
Network latency average = 19.4827
	minimum = 7
	maximum = 46
Slowest packet = 34720
Flit latency average = 19.4827
	minimum = 7
	maximum = 46
Slowest flit = 34720
Fragmentation average = 0
	minimum = 0
	maximum = 0
Injected packet rate average = 0.048625
	minimum = 0.032 (at node 7)
	maximum = 0.062 (at node 14)
Accepted packet rate average = 0.046875
	minimum = 0.022 (at node 13)
	maximum = 0.066 (at node 2)
Injected flit rate average = 0.048625
	minimum = 0.032 (at node 7)
	maximum = 0.062 (at node 14)
Accepted flit rate average= 0.046875
	minimum = 0.022 (at node 13)
	maximum = 0.066 (at node 2)
Injected packet length average = 1
Accepted packet length average = 1
Total in-flight flits = 14 (0 measured)
latency change    = 1
throughput change = 1
Class 0:
Packet latency average = 20.1824
	minimum = 7
	maximum = 63
Network latency average = 20.1824
	minimum = 7
	maximum = 63
Slowest packet = 35277
Flit latency average = 20.1824
	minimum = 7
	maximum = 63
Slowest flit = 35277
Fragmentation average = 0
	minimum = 0
	maximum = 0
Injected packet rate average = 0.049125
	minimum = 0.037 (at node 7)
	maximum = 0.061 (at node 14)
Accepted packet rate average = 0.0483125
	minimum = 0.027 (at node 13)
	maximum = 0.059 (at node 6)
Injected flit rate average = 0.049125
	minimum = 0.037 (at node 7)
	maximum = 0.061 (at node 14)
Accepted flit rate average= 0.0483125
	minimum = 0.027 (at node 13)
	maximum = 0.059 (at node 6)
Injected packet length average = 1
Accepted packet length average = 1
Total in-flight flits = 13 (0 measured)
latency change    = 0.0346708
throughput change = 0.0297542
Class 0:
Packet latency average = 19.7711
	minimum = 7
	maximum = 44
Network latency average = 19.7711
	minimum = 7
	maximum = 44
Slowest packet = 35796
Flit latency average = 19.7711
	minimum = 7
	maximum = 44
Slowest flit = 35796
Fragmentation average = 0
	minimum = 0
	maximum = 0
Injected packet rate average = 0.052625
	minimum = 0.036 (at node 0)
	maximum = 0.066 (at node 8)
Accepted packet rate average = 0.051875
	minimum = 0.038 (at node 2)
	maximum = 0.068 (at node 4)
Injected flit rate average = 0.052625
	minimum = 0.036 (at node 0)
	maximum = 0.066 (at node 8)
Accepted flit rate average= 0.051875
	minimum = 0.038 (at node 2)
	maximum = 0.068 (at node 4)
Injected packet length average = 1
Accepted packet length average = 1
Total in-flight flits = 19 (0 measured)
latency change    = 0.0208042
throughput change = 0.0686747
Warmed up ...Time used is 1500 cycles
Class 0:
Packet latency average = 19.8017
	minimum = 7
	maximum = 51
Network latency average = 19.8017
	minimum = 7
	maximum = 51
Slowest packet = 35973
Flit latency average = 19.9162
	minimum = 7
	maximum = 51
Slowest flit = 35973
Fragmentation average = 0
	minimum = 0
	maximum = 0
Injected packet rate average = 0.0475
	minimum = 0.024 (at node 6)
	maximum = 0.06 (at node 4)
Accepted packet rate average = 0.04775
	minimum = 0.032 (at node 1)
	maximum = 0.062 (at node 3)
Injected flit rate average = 0.0475
	minimum = 0.024 (at node 6)
	maximum = 0.06 (at node 4)
Accepted flit rate average= 0.04775
	minimum = 0.032 (at node 1)
	maximum = 0.062 (at node 3)
Injected packet length average = 1
Accepted packet length average = 1
Total in-flight flits = 17 (17 measured)
latency change    = 0.00154374
throughput change = 0.0863874
Class 0:
Packet latency average = 19.8783
	minimum = 7
	maximum = 51
Network latency average = 19.8783
	minimum = 7
	maximum = 51
Slowest packet = 35973
Flit latency average = 19.9301
	minimum = 7
	maximum = 51
Slowest flit = 35973
Fragmentation average = 0
	minimum = 0
	maximum = 0
Injected packet rate average = 0.0506875
	minimum = 0.034 (at node 6)
	maximum = 0.063 (at node 15)
Accepted packet rate average = 0.051
	minimum = 0.041 (at node 1)
	maximum = 0.066 (at node 3)
Injected flit rate average = 0.0506875
	minimum = 0.034 (at node 6)
	maximum = 0.063 (at node 15)
Accepted flit rate average= 0.051
	minimum = 0.041 (at node 1)
	maximum = 0.066 (at node 3)
Injected packet length average = 1
Accepted packet length average = 1
Total in-flight flits = 14 (14 measured)
latency change    = 0.0038555
throughput change = 0.0637255
Class 0:
Packet latency average = 19.9992
	minimum = 7
	maximum = 51
Network latency average = 19.9992
	minimum = 7
	maximum = 51
Slowest packet = 35973
Flit latency average = 20.0312
	minimum = 7
	maximum = 51
Slowest flit = 35973
Fragmentation average = 0
	minimum = 0
	maximum = 0
Injected packet rate average = 0.0519167
	minimum = 0.0393333 (at node 6)
	maximum = 0.064 (at node 7)
Accepted packet rate average = 0.052
	minimum = 0.0386667 (at node 1)
	maximum = 0.0613333 (at node 3)
Injected flit rate average = 0.0519167
	minimum = 0.0393333 (at node 6)
	maximum = 0.064 (at node 7)
Accepted flit rate average= 0.052
	minimum = 0.0386667 (at node 1)
	maximum = 0.0613333 (at node 3)
Injected packet length average = 1
Accepted packet length average = 1
Total in-flight flits = 17 (17 measured)
latency change    = 0.00604488
throughput change = 0.0192308
Class 0:
Packet latency average = 19.9419
[...]
Flit latency average = 20.1825
	minimum = 7
	maximum = 48
Slowest flit = 127602
Fragmentation average = 0
	minimum = 0
	maximum = 0
Injected packet rate average = 0.050125
	minimum = 0.038 (at node 5)
	maximum = 0.064 (at node 8)
Accepted packet rate average = 0.048625
	minimum = 0.034 (at node 3)
	maximum = 0.068 (at node 0)
Injected flit rate average = 0.050125
	minimum = 0.038 (at node 5)
	maximum = 0.064 (at node 8)
Accepted flit rate average= 0.048625
	minimum = 0.034 (at node 3)
	maximum = 0.068 (at node 0)
Injected packet length average = 1
Accepted packet length average = 1
Total in-flight flits = 22 (22 measured)
latency change    = 0.00423817
throughput change = 0.0102828
Class 0:
Packet latency average = 20.3519
	minimum = 7
	maximum = 49
Network latency average = 20.3519
	minimum = 7
	maximum = 49
Slowest packet = 127751
Flit latency average = 20.3675
	minimum = 7
	maximum = 49
Slowest flit = 127751
Fragmentation average = 0
	minimum = 0
	maximum = 0
Injected packet rate average = 0.050375
	minimum = 0.035 (at node 4)
	maximum = 0.064 (at node 9)
Accepted packet rate average = 0.05
	minimum = 0.036 (at node 15)
	maximum = 0.065 (at node 0)
Injected flit rate average = 0.050375
	minimum = 0.035 (at node 4)
	maximum = 0.064 (at node 9)
Accepted flit rate average= 0.05
	minimum = 0.036 (at node 15)
	maximum = 0.065 (at node 0)
Injected packet length average = 1
Accepted packet length average = 1
Total in-flight flits = 16 (16 measured)
latency change    = 0.0101602
throughput change = 0.0275
Class 0:
Packet latency average = 20.3701
	minimum = 7
	maximum = 49
Network latency average = 20.3701
	minimum = 7
	maximum = 49
Slowest packet = 127751
Flit latency average = 20.3803
	minimum = 7
	maximum = 49
Slowest flit = 127751
Fragmentation average = 0
	minimum = 0
	maximum = 0
Injected packet rate average = 0.05025
	minimum = 0.0386667 (at node 3)
	maximum = 0.0626667 (at node 0)
Accepted packet rate average = 0.0499583
	minimum = 0.0373333 (at node 9)
	maximum = 0.0606667 (at node 0)
Injected flit rate average = 0.05025
	minimum = 0.0386667 (at node 3)
	maximum = 0.0626667 (at node 0)
Accepted flit rate average= 0.0499583
	minimum = 0.0373333 (at node 9)
	maximum = 0.0606667 (at node 0)
Injected packet length average = 1
Accepted packet length average = 1
Total in-flight flits = 17 (17 measured)
latency change    = 0.000891511
throughput change = 0.000834028
Draining all recorded packets ...
Draining remaining packets ...
Time taken is 3054 cycles
Class 0:
Packet latency average = 20.6819
	minimum = 7
	maximum = 46
Network latency average = 20.6819
	minimum = 7
	maximum = 46
Slowest packet = 128666
Flit latency average = 20.6819
	minimum = 7
	maximum = 46
Slowest flit = 128666
Fragmentation average = 0
	minimum = 0
	maximum = 0
Injected packet rate average = 0.050625
	minimum = 0.038 (at node 3)
	maximum = 0.068 (at node 0)
Accepted packet rate average = 0.049125
	minimum = 0.032 (at node 9)
	maximum = 0.064 (at node 3)
Injected flit rate average = 0.050625
	minimum = 0.038 (at node 3)
	maximum = 0.068 (at node 0)
Accepted flit rate average= 0.049125
	minimum = 0.032 (at node 9)
	maximum = 0.064 (at node 3)
Injected packet length average = 1
Accepted packet length average = 1
Total in-flight flits = 12 (0 measured)
latency change    = 1
throughput change = 1
Class 0:
Packet latency average = 20.2787
	minimum = 7
	maximum = 51
Network latency average = 20.2787
	minimum = 7
	maximum = 51
Slowest packet = 129189
Flit latency average = 20.2787
	minimum = 7
	maximum = 51
Slowest flit = 129189
Fragmentation average = 0
	minimum = 0
	maximum = 0
Injected packet rate average = 0.051375
	minimum = 0.038 (at node 14)
	maximum = 0.062 (at node 0)
Accepted packet rate average = 0.05
	minimum = 0.033 (at node 2)
	maximum = 0.07 (at node 14)
Injected flit rate average = 0.051375
	minimum = 0.038 (at node 14)
	maximum = 0.062 (at node 0)
Accepted flit rate average= 0.05
	minimum = 0.033 (at node 2)
	maximum = 0.07 (at node 14)
Injected packet length average = 1
Accepted packet length average = 1
Total in-flight flits = 22 (0 measured)
latency change    = 0.0198821
throughput change = 0.0175
Class 0:
Packet latency average = 20.0649
	minimum = 7
	maximum = 41
Network latency average = 20.0649
	minimum = 7
	maximum = 41
Slowest packet = 129438
Flit latency average = 20.0649
	minimum = 7
	maximum = 41
Slowest flit = 129438
Fragmentation average = 0
	minimum = 0
	maximum = 0
Injected packet rate average = 0.05075
	minimum = 0.03 (at node 15)
	maximum = 0.062 (at node 1)
Accepted packet rate average = 0.052
	minimum = 0.042 (at node 7)
	maximum = 0.072 (at node 8)
Injected flit rate average = 0.05075
	minimum = 0.03 (at node 15)
	maximum = 0.062 (at node 1)
Accepted flit rate average= 0.052
	minimum = 0.042 (at node 7)
	maximum = 0.072 (at node 8)
Injected packet length average = 1
Accepted packet length average = 1
Total in-flight flits = 12 (0 measured)
latency change    = 0.0106577
throughput change = 0.0384615
Warmed up ...Time used is 1500 cycles
Class 0:
Packet latency average = 20.4196
	minimum = 7
	maximum = 56
Network latency average = 20.4196
	minimum = 7
	maximum = 56
Slowest packet = 130115
Flit latency average = 20.461
	minimum = 7
	maximum = 56
Slowest flit = 130115
Fragmentation average = 0
	minimum = 0
	maximum = 0
Injected packet rate average = 0.052
	minimum = 0.036 (at node 0)
	maximum = 0.082 (at node 11)
Accepted packet rate average = 0.05125
	minimum = 0.034 (at node 12)
	maximum = 0.078 (at node 15)
Injected flit rate average = 0.052
	minimum = 0.036 (at node 0)
	maximum = 0.082 (at node 11)
Accepted flit rate average= 0.05125
	minimum = 0.034 (at node 12)
	maximum = 0.078 (at node 15)
Injected packet length average = 1
Accepted packet length average = 1
Total in-flight flits = 18 (18 measured)
latency change    = 0.0173703
throughput change = 0.0146341
Class 0:
Packet latency average = 20.115
	minimum = 7
	maximum = 56
Network latency average = 20.115
	minimum = 7
	maximum = 56
Slowest packet = 130115
Flit latency average = 20.1396
	minimum = 7
	maximum = 56
Slowest flit = 130115
Fragmentation average = 0
	minimum = 0
	maximum = 0
Injected packet rate average = 0.0528125
	minimum = 0.041 (at node 13)
	maximum = 0.069 (at node 11)
Accepted packet rate average = 0.052375
	minimum = 0.043 (at node 7)
	maximum = 0.067 (at node 15)
Injected flit rate average = 0.0528125
	minimum = 0.041 (at node 13)
	maximum = 0.069 (at node 11)
Accepted flit rate average= 0.052375
	minimum = 0.043 (at node 7)
	maximum = 0.067 (at node 15)
Injected packet length average = 1
Accepted packet length average = 1
Total in-flight flits = 19 (19 measured)
latency change    = 0.0151422
throughput change = 0.0214797
Class 0:
Packet latency average = 20.0389
	minimum = 7
	maximum = 56
Network latency average = 20.0389
	minimum = 7
	maximum = 56
Slowest packet = 130115
Flit latency average = 20.0561
	minimum = 7
	maximum = 56
Slowest flit = 130115
Fragmentation average = 0
	minimum = 0
	maximum = 0
Injected packet rate average = 0.0519167
	minimum = 0.0446667 (at node 0)
	maximum = 0.066 (at node 10)
Accepted packet rate average = 0.0519583
	minimum = 0.0406667 (at node 7)
	maximum = 0.0633333 (at node 15)
Injected flit rate average = 0.0519167
	minimum = 0.0446667 (at node 0)
	maximum = 0.066 (at node 10)
Accepted flit rate average= 0.0519583
	minimum = 0.0406667 (at node 7)
	maximum = 0.0633333 (at node 15)
Injected packet length average = 1
Accepted packet length average = 1
Total in-flight flits = 11 (11 measured)
latency change    = 0.0037999
throughput change = 0.00801925
Draining all recorded packets ...
Draining remaining packets ...
Time taken is 3061 cycles
Class 0:
Packet latency average = 20.4031
	minimum = 7
	maximum = 61
Network latency average = 20.4031
	minimum = 7
	maximum = 61
Slowest packet = 131088
Flit latency average = 20.4031
	minimum = 7
	maximum = 61
Slowest flit = 131088
Fragmentation average = 0
	minimum = 0
	maximum = 0
Injected packet rate average = 0.049375
	minimum = 0.04 (at node 12)
	maximum = 0.06 (at node 1)
Accepted packet rate average = 0.04775
	minimum = 0.032 (at node 9)
	maximum = 0.062 (at node 3)
Injected flit rate average = 0.049375
	minimum = 0.04 (at node 12)
	maximum = 0.06 (at node 1)
Accepted flit rate average= 0.04775
	minimum = 0.032 (at node 9)
	maximum = 0.062 (at node 3)
Injected packet length average = 1
Accepted packet length average = 1
Total in-flight flits = 13 (0 measured)
latency change    = 1
throughput change = 1
Class 0:
Packet latency average = 20.201
	minimum = 7
	maximum = 61
Network latency average = 20.201
	minimum = 7
	maximum = 61
Slowest packet = 131088
Flit latency average = 20.201
	minimum = 7
	maximum = 61
Slowest flit = 131088
Fragmentation average = 0
	minimum = 0
	maximum = 0
Injected packet rate average = 0.05075
	minimum = 0.042 (at node 12)
	maximum = 0.063 (at node 11)
Accepted packet rate average = 0.0494375
	minimum = 0.039 (at node 13)
	maximum = 0.062 (at node 7)
Injected flit rate average = 0.05075
	minimum = 0.042 (at node 12)
	maximum = 0.063 (at node 11)
Accepted flit rate average= 0.0494375
	minimum = 0.039 (at node 13)
	maximum = 0.062 (at node 7)
Injected packet length average = 1
Accepted packet length average = 1
Total in-flight flits = 21 (0 measured)
latency change    = 0.0100059
throughput change = 0.034134
Class 0:
Packet latency average = 20.4014
	minimum = 7
	maximum = 46
Network latency average = 20.4014
	minimum = 7
	maximum = 46
Slowest packet = 131862
Flit latency average = 20.4014
	minimum = 7
	maximum = 46
Slowest flit = 131862
Fragmentation average = 0
	minimum = 0
	maximum = 0
Injected packet rate average = 0.051
	minimum = 0.032 (at node 2)
	maximum = 0.07 (at node 8)
Accepted packet rate average = 0.052
	minimum = 0.04 (at node 2)
	maximum = 0.074 (at node 7)
Injected flit rate average = 0.051
	minimum = 0.032 (at node 2)
	maximum = 0.07 (at node 8)
Accepted flit rate average= 0.052
	minimum = 0.04 (at node 2)
	maximum = 0.074 (at node 7)
Injected packet length average = 1
Accepted packet length average = 1
Total in-flight flits = 13 (0 measured)
latency change    = 0.00982435
throughput change = 0.0492788
Warmed up ...Time used is 1500 cycles
Class 0:
Packet latency average = 19.4749
	minimum = 7
	maximum = 44
Network latency average = 19.4749
	minimum = 7
	maximum = 44
Slowest packet = 132514
Flit latency average = 19.5893
	minimum = 7
	maximum = 45
Slowest flit = 132212
Fragmentation average = 0
	minimum = 0
	maximum = 0
Injected packet rate average = 0.0495
	minimum = 0.028 (at node 14)
	maximum = 0.07 (at node 7)
Accepted packet rate average = 0.049
	minimum = 0.036 (at node 7)
	maximum = 0.064 (at node 4)
Injected flit rate average = 0.0495
	minimum = 0.028 (at node 14)
	maximum = 0.07 (at node 7)
Accepted flit rate average= 0.049
	minimum = 0.036 (at node 7)
	maximum = 0.064 (at node 4)
Injected packet length average = 1
Accepted packet length average = 1
Total in-flight flits = 17 (17 measured)
latency change    = 0.0475744
throughput change = 0.0612245
Class 0:
Packet latency average = 19.9455
	minimum = 7
	maximum = 51
Network latency average = 19.9455
	minimum = 7
	maximum = 51
Slowest packet = 132725
Flit latency average = 19.9938
	minimum = 7
	maximum = 51
Slowest flit = 132725
Fragmentation average = 0
	minimum = 0
	maximum = 0
Injected packet rate average = 0.051
	minimum = 0.039 (at node 2)
	maximum = 0.067 (at node 9)
Accepted packet rate average = 0.050125
	minimum = 0.039 (at node 15)
	maximum = 0.064 (at node 8)
Injected flit rate average = 0.051
	minimum = 0.039 (at node 2)
	maximum = 0.067 (at node 9)
Accepted flit rate average= 0.050125
	minimum = 0.039 (at node 15)
	maximum = 0.064 (at node 8)
Injected packet length average = 1
Accepted packet length average = 1
Total in-flight flits = 27 (27 measured)
latency change    = 0.0235926
throughput change = 0.0224439
Class 0:
Packet latency average = 20.0693
	minimum = 7
	maximum = 51
Network latency average = 20.0693
	minimum = 7
	maximum = 51
Slowest packet = 132725
Flit latency average = 20.1008
	minimum = 7
	maximum = 51
Slowest flit = 132725
Fragmentation average = 0
	minimum = 0
	maximum = 0
Injected packet rate average = 0.0493333
	minimum = 0.0413333 (at node 0)
	maximum = 0.0593333 (at node 6)
Accepted packet rate average = 0.0492083
	minimum = 0.036 (at node 15)
	maximum = 0.0626667 (at node 8)
Injected flit rate average = 0.0493333
	minimum = 0.0413333 (at node 0)
	maximum = 0.0593333 (at node 6)
Accepted flit rate average= 0.0492083
	minimum = 0.036 (at node 15)
	maximum = 0.0626667 (at node 8)
Injected packet length average = 1
Accepted packet length average = 1
Total in-flight flits = 16 (16 measured)
latency change    = 0.00617104
throughput change = 0.0186283
Class 0:
Packet latency average = 20.0725
	minimum = 7
	maximum = 51
Network latency average = 20.0725
	minimum = 7
	maximum = 51
Slowest packet = 132725
Flit latency average = 20.0958
	minimum = 7
	maximum = 51
Slowest flit = 132725
Fragmentation average = 0
	minimum = 0
	maximum = 0
Injected packet rate average = 0.0496875
	minimum = 0.041 (at node 0)
	maximum = 0.057 (at node 4)
Accepted packet rate average = 0.0495625
	minimum = 0.038 (at node 15)
	maximum = 0.056 (at node 0)
Injected flit rate average = 0.0496875
	minimum = 0.041 (at node 0)
	maximum = 0.057 (at node 4)
Accepted flit rate average= 0.0495625
	minimum = 0.038 (at node 15)
	maximum = 0.056 (at node 0)
Injected packet length average = 1
Accepted packet length average = 1
Total in-flight flits = 17 (17 measured)
latency change    = 0.000155619
throughput change = 0.00714586
Draining all recorded packets ...
Draining remaining packets ...
Time taken is 3558 cycles
Class 0:
Packet latency average = 19.523
	minimum = 7
	maximum = 42
Network latency average = 19.523
	minimum = 7
	maximum = 42
Slowest packet = 133967
Flit latency average = 19.523
	minimum = 7
	maximum = 42
Slowest flit = 133967
Fragmentation average = 0
	minimum = 0
	maximum = 0
Injected packet rate average = 0.05125
	minimum = 0.034 (at node 9)
	maximum = 0.062 (at node 10)
Accepted packet rate average = 0.049
	minimum = 0.028 (at node 3)
	maximum = 0.064 (at node 10)
Injected flit rate average = 0.05125
	minimum = 0.034 (at node 9)
	maximum = 0.062 (at node 10)
Accepted flit rate average= 0.049
	minimum = 0.028 (at node 3)
	maximum = 0.064 (at node 10)
Injected packet length average = 1
Accepted packet length average = 1
Total in-flight flits = 18 (0 measured)
latency change    = 1
throughput change = 1
Class 0:
Packet latency average = 19.9579
	minimum = 7
	maximum = 53
Network latency average = 19.9579
	minimum = 7
	maximum = 53
Slowest packet = 134244
Flit latency average = 19.9579
	minimum = 7
	maximum = 53
Slowest flit = 134244
Fragmentation average = 0
	minimum = 0
	maximum = 0
Injected packet rate average = 0.051625
	minimum = 0.038 (at node 9)
	maximum = 0.064 (at node 4)
Accepted packet rate average = 0.0505
	minimum = 0.039 (at node 11)
	maximum = 0.077 (at node 10)
Injected flit rate average = 0.051625
	minimum = 0.038 (at node 9)
	maximum = 0.064 (at node 4)
Accepted flit rate average= 0.0505
	minimum = 0.039 (at node 11)
	maximum = 0.077 (at node 10)
Injected packet length average = 1
Accepted packet length average = 1
Total in-flight flits = 18 (0 measured)
latency change    = 0.0217939
throughput change = 0.029703
Class 0:
Packet latency average = 20.07
	minimum = 7
	maximum = 52
Network latency average = 20.07
	minimum = 7
	maximum = 52
Slowest packet = 134941
Flit latency average = 20.07
	minimum = 7
	maximum = 52
Slowest flit = 134941
Fragmentation average = 0
	minimum = 0
	maximum = 0
Injected packet rate average = 0.050375
	minimum = 0.032 (at node 8)
	maximum = 0.072 (at node 10)
Accepted packet rate average = 0.05
	minimum = 0.034 (at node 9)
	maximum = 0.074 (at node 1)
Injected flit rate average = 0.050375
	minimum = 0.032 (at node 8)
	maximum = 0.072 (at node 10)
Accepted flit rate average= 0.05
	minimum = 0.034 (at node 9)
	maximum = 0.074 (at node 1)
Injected packet length average = 1
Accepted packet length average = 1
Total in-flight flits = 21 (0 measured)
latency change    = 0.00558441
throughput change = 0.01
Warmed up ...Time used is 1500 cycles
Class 0:
Packet latency average = 20.2974
	minimum = 7
	maximum = 43
Network latency average = 20.2974
	minimum = 7
	maximum = 43
Slowest packet = 135371
Flit latency average = 20.202
	minimum = 7
	maximum = 43
Slowest flit = 135371
Fragmentation average = 0
	minimum = 0
	maximum = 0
Injected packet rate average = 0.0505
	minimum = 0.034 (at node 2)
	maximum = 0.064 (at node 0)
Accepted packet rate average = 0.050125
	minimum = 0.032 (at node 10)
	maximum = 0.078 (at node 7)
Injected flit rate average = 0.0505
	minimum = 0.034 (at node 2)
	maximum = 0.064 (at node 0)
Accepted flit rate average= 0.050125
	minimum = 0.032 (at node 10)
	maximum = 0.078 (at node 7)
Injected packet length average = 1
Accepted packet length average = 1
Total in-flight flits = 24 (24 measured)
latency change    = 0.0112019
throughput change = 0.00249377
Class 0:
Packet latency average = 20.2662
	minimum = 7
	maximum = 53
Network latency average = 20.2662
	minimum = 7
	maximum = 53
Slowest packet = 135414
Flit latency average = 20.2205
	minimum = 7
	maximum = 53
Slowest flit = 135414
Fragmentation average = 0
	minimum = 0
	maximum = 0
Injected packet rate average = 0.0511875
	minimum = 0.04 (at node 6)
	maximum = 0.06 (at node 8)
Accepted packet rate average = 0.0513125
	minimum = 0.034 (at node 10)
	maximum = 0.067 (at node 7)
Injected flit rate average = 0.0511875
	minimum = 0.04 (at node 6)
	maximum = 0.06 (at node 8)
Accepted flit rate average= 0.0513125
	minimum = 0.034 (at node 10)
	maximum = 0.067 (at node 7)
Injected packet length average = 1
Accepted packet length average = 1
Total in-flight flits = 19 (19 measured)
latency change    = 0.00153548
throughput change = 0.0231425
Class 0:
Packet latency average = 20.6573
	minimum = 7
	maximum = 84
Network latency average = 20.6573
	minimum = 7
	maximum = 84
Slowest packet = 136209
Flit latency average = 20.6212
	minimum = 7
	maximum = 84
Slowest flit = 136209
Fragmentation average = 0
	minimum = 0
	maximum = 0
Injected packet rate average = 0.0524583
	minimum = 0.042 (at node 6)
	maximum = 0.0653333 (at node 8)
Accepted packet rate average = 0.0527917
	minimum = 0.0413333 (at node 10)
	maximum = 0.0706667 (at node 7)
Injected flit rate average = 0.0524583
	minimum = 0.042 (at node 6)
	maximum = 0.0653333 (at node 8)
Accepted flit rate average= 0.0527917
	minimum = 0.0413333 (at node 10)
	maximum = 0.0706667 (at node 7)
Injected packet length average = 1
Accepted packet length average = 1
Total in-flight flits = 13 (13 measured)
latency change    = 0.0189305
throughput change = 0.0280189
Draining all recorded packets ...
Draining remaining packets ...
Time taken is 3056 cycles
====== Overall Traffic Statistics ======
====== Traffic class 0 ======
Packet latency average = 20.2848 (50 samples)
	minimum = 7 (50 samples)
	maximum = 58.7 (50 samples)
Network latency average = 20.2848 (50 samples)
	minimum = 7 (50 samples)
	maximum = 58.7 (50 samples)
Flit latency average = 20.3082 (50 samples)
	minimum = 7 (50 samples)
	maximum = 58.7 (50 samples)
Fragmentation average = 0 (50 samples)
	minimum = 0 (50 samples)
	maximum = 0 (50 samples)
Injected packet rate average = 0.0502928 (50 samples)
	minimum = 0.0418327 (50 samples)
	maximum = 0.0595787 (50 samples)
Accepted packet rate average = 0.0503001 (50 samples)
	minimum = 0.041086 (50 samples)
	maximum = 0.0595467 (50 samples)
Injected flit rate average = 0.0502928 (50 samples)
	minimum = 0.0418327 (50 samples)
	maximum = 0.0595787 (50 samples)
Accepted flit rate average = 0.0503001 (50 samples)
	minimum = 0.041086 (50 samples)
	maximum = 0.0595467 (50 samples)
Injected packet size average = 1 (50 samples)
Accepted packet size average = 1 (50 samples)
Hops average = 3.51077 (50 samples)
Total run time 2.40325
