BEGIN Configuration File: /tmp/tmprq8wkrja.cfg
topology = mesh;
k = 4;
n = 2;
routing_function = planar_adapt;
num_vcs = 4;
vc_buf_size = 4;
wait_for_tail_credit = 1;
vc_allocator = islip;
sw_allocator = islip;
alloc_iters = 1;
credit_delay = 2;
routing_delay = 1;
vc_alloc_delay = 1;
sw_alloc_delay = 1;
input_speedup = 2;
output_speedup = 1;
internal_speedup = 1.0;
traffic = hotspot;
packet_size = 1;
sim_type = latency;
injection_rate = 0.05;
warmup_periods = 3;
sample_period = 500;
sim_count = 50;
seed = 2;
link_failures = 1;
fail_seed = 202;

END Configuration File: /tmp/tmprq8wkrja.cfg
failure at node 4, channel 2 (1/1)
Class 0:
Packet latency average = 60.25
	minimum = 7
	maximum = 439
Network latency average = 58.9778
	minimum = 7
	maximum = 439
Slowest packet = 13
Flit latency average = 58.9778
	minimum = 7
	maximum = 439
Slowest flit = 13
Fragmentation average = 0
	minimum = 0
	maximum = 0
Injected packet rate average = 0.0315
	minimum = 0.012 (at node 2)
	maximum = 0.056 (at node 9)
Accepted packet rate average = 0.0225
	minimum = 0 (at node 0)
	maximum = 0.36 (at node 13)
Injected flit rate average = 0.0315
	minimum = 0.012 (at node 2)
	maximum = 0.056 (at node 9)
Accepted flit rate average= 0.0225
	minimum = 0 (at node 0)
	maximum = 0.36 (at node 13)
Injected packet length average = 1
Accepted packet length average = 1
Total in-flight flits = 83 (0 measured)
latency change    = 1
throughput change = 1
Class 0:
Packet latency average = 122.382
	minimum = 7
	maximum = 934
Network latency average = 93.5125
	minimum = 7
	maximum = 934
Slowest packet = 20
Flit latency average = 93.5125
	minimum = 7
	maximum = 934
Slowest flit = 20
Fragmentation average = 0
	minimum = 0
	maximum = 0
Injected packet rate average = 0.0264375
	minimum = 0.008 (at node 2)
	maximum = 0.048 (at node 9)
Accepted packet rate average = 0.0224375
	minimum = 0 (at node 0)
	maximum = 0.359 (at node 13)
Injected flit rate average = 0.0264375
	minimum = 0.008 (at node 2)
	maximum = 0.048 (at node 9)
Accepted flit rate average= 0.0224375
	minimum = 0 (at node 0)
	maximum = 0.359 (at node 13)
Injected packet length average = 1
Accepted packet length average = 1
Total in-flight flits = 74 (0 measured)
latency change    = 0.507687
throughput change = 0.00278552
Class 0:
Packet latency average = 227.823
	minimum = 7
	maximum = 1332
Network latency average = 125.051
	minimum = 7
	maximum = 1293
Slowest packet = 108
Flit latency average = 125.051
	minimum = 7
	maximum = 1293
Slowest flit = 108
Fragmentation average = 0
	minimum = 0
	maximum = 0
Injected packet rate average = 0.0255
	minimum = 0 (at node 3)
	maximum = 0.066 (at node 14)
Accepted packet rate average = 0.02475
	minimum = 0 (at node 0)
	maximum = 0.396 (at node 13)
Injected flit rate average = 0.0255
	minimum = 0 (at node 3)
	maximum = 0.066 (at node 14)
Accepted flit rate average= 0.02475
	minimum = 0 (at node 0)
	maximum = 0.396 (at node 13)
Injected packet length average = 1
Accepted packet length average = 1
Total in-flight flits = 80 (0 measured)
latency change    = 0.462822
throughput change = 0.0934343
Warmed up ...Time used is 1500 cycles
Class 0:
Packet latency average = 119.837
	minimum = 7
	maximum = 1552
Network latency average = 41.5556
	minimum = 7
	maximum = 375
Slowest packet = 648
Flit latency average = 141.396
	minimum = 7
	maximum = 1913
Slowest flit = 46
Fragmentation average = 0
	minimum = 0
	maximum = 0
Injected packet rate average = 0.0245
	minimum = 0 (at node 3)
	maximum = 0.062 (at node 14)
Accepted packet rate average = 0.024625
	minimum = 0 (at node 0)
	maximum = 0.394 (at node 13)
Injected flit rate average = 0.0245
	minimum = 0 (at node 3)
	maximum = 0.062 (at node 14)
Accepted flit rate average= 0.024625
	minimum = 0 (at node 0)
	maximum = 0.394 (at node 13)
Injected packet length average = 1
Accepted packet length average = 1
Total in-flight flits = 80 (44 measured)
latency change    = 0.901116
throughput change = 0.00507614
Average latency for class 0 exceeded 500 cycles. Aborting simulation.
Too many sample periods needed to converge
Simulation unstable, ending ...
Total run time 0.0296979
