BEGIN Configuration File: /tmp/tmp7ao59ewn.cfg
topology = mesh;
k = 4;
n = 2;
routing_function = planar_adapt;
num_vcs = 4;
vc_buf_size = 4;
wait_for_tail_credit = 1;
vc_allocator = islip;
sw_allocator = islip;
alloc_iters = 1;
credit_delay = 2;
routing_delay = 1;
vc_alloc_delay = 1;
sw_alloc_delay = 1;
input_speedup = 2;
output_speedup = 1;
internal_speedup = 1.0;
traffic = transpose;
packet_size = 1;
sim_type = latency;
injection_rate = 0.05;
warmup_periods = 3;
sample_period = 500;
sim_count = 50;
seed = 2;
link_failures = 2;
fail_seed = 202;

END Configuration File: /tmp/tmp7ao59ewn.cfg
failure at node 4, channel 2 (1/2)
failure at node 13, channel 0 (2/2)
Class 0:
Packet latency average = 33.4738
	minimum = 7
	maximum = 257
Network latency average = 33.168
	minimum = 7
	maximum = 244
Slowest packet = 202
Flit latency average = 33.168
	minimum = 7
	maximum = 244
Slowest flit = 202
Fragmentation average = 0
	minimum = 0
	maximum = 0
Injected packet rate average = 0.048875
	minimum = 0.034 (at node 5)
	maximum = 0.06 (at node 0)
Accepted packet rate average = 0.045375
	minimum = 0.026 (at node 12)
	maximum = 0.06 (at node 0)
Injected flit rate average = 0.048875
	minimum = 0.034 (at node 5)
	maximum = 0.06 (at node 0)
Accepted flit rate average= 0.045375
	minimum = 0.026 (at node 12)
	maximum = 0.06 (at node 0)
Injected packet length average = 1
Accepted packet length average = 1
Total in-flight flits = 28 (0 measured)
latency change    = 1
throughput change = 1
Class 0:
Packet latency average = 38.8032
	minimum = 7
	maximum = 398
Network latency average = 37.7574
	minimum = 7
	maximum = 394
Slowest packet = 439
Flit latency average = 37.7574
	minimum = 7
	maximum = 394
Slowest flit = 439
Fragmentation average = 0
	minimum = 0
	maximum = 0
Injected packet rate average = 0.0485
	minimum = 0.038 (at node 1)
	maximum = 0.066 (at node 15)
Accepted packet rate average = 0.046375
	minimum = 0.031 (at node 12)
	maximum = 0.065 (at node 15)
Injected flit rate average = 0.0485
	minimum = 0.038 (at node 1)
	maximum = 0.066 (at node 15)
Accepted flit rate average= 0.046375
	minimum = 0.031 (at node 12)
	maximum = 0.065 (at node 15)
Injected packet length average = 1
Accepted packet length average = 1
Total in-flight flits = 36 (0 measured)
latency change    = 0.137344
throughput change = 0.0215633
Class 0:
Packet latency average = 61.2131
	minimum = 7
	maximum = 574
Network latency average = 47.4034
	minimum = 7
	maximum = 407
Slowest packet = 541
Flit latency average = 47.4034
	minimum = 7
	maximum = 407
Slowest flit = 725
Fragmentation average = 0
	minimum = 0
	maximum = 0
Injected packet rate average = 0.043875
	minimum = 0.03 (at node 3)
	maximum = 0.062 (at node 13)
Accepted packet rate average = 0.044
	minimum = 0.028 (at node 12)
	maximum = 0.06 (at node 13)
Injected flit rate average = 0.043875
	minimum = 0.03 (at node 3)
	maximum = 0.062 (at node 13)
Accepted flit rate average= 0.044
	minimum = 0.028 (at node 12)
	maximum = 0.06 (at node 13)
Injected packet length average = 1
Accepted packet length average = 1
Total in-flight flits = 35 (0 measured)
latency change    = 0.366096
throughput change = 0.0539773
Warmed up ...Time used is 1500 cycles
Class 0:
Packet latency average = 54.7422
	minimum = 7
	maximum = 800
Network latency average = 38.6147
	minimum = 7
	maximum = 335
Slowest packet = 1135
Flit latency average = 49.7552
	minimum = 7
	maximum = 371
Slowest flit = 845
Fragmentation average = 0
	minimum = 0
	maximum = 0
Injected packet rate average = 0.04925
	minimum = 0.026 (at node 3)
	maximum = 0.084 (at node 14)
Accepted packet rate average = 0.0485
	minimum = 0.026 (at node 12)
	maximum = 0.084 (at node 11)
Injected flit rate average = 0.04925
	minimum = 0.026 (at node 3)
	maximum = 0.084 (at node 14)
Accepted flit rate average= 0.0485
	minimum = 0.026 (at node 12)
	maximum = 0.084 (at node 11)
Injected packet length average = 1
Accepted packet length average = 1
Total in-flight flits = 42 (42 measured)
latency change    = 0.118206
throughput change = 0.0927835
Class 0:
Packet latency average = 87.5063
	minimum = 7
	maximum = 958
Network latency average = 45.3706
	minimum = 7
	maximum = 426
Slowest packet = 1135
Flit latency average = 50.8187
	minimum = 7
	maximum = 426
Slowest flit = 1157
Fragmentation average = 0
	minimum = 0
	maximum = 0
Injected packet rate average = 0.047
	minimum = 0.024 (at node 3)
	maximum = 0.074 (at node 14)
Accepted packet rate average = 0.046875
	minimum = 0.025 (at node 12)
	maximum = 0.074 (at node 11)
Injected flit rate average = 0.047
	minimum = 0.024 (at node 3)
	maximum = 0.074 (at node 14)
Accepted flit rate average= 0.046875
	minimum = 0.025 (at node 12)
	maximum = 0.074 (at node 11)
Injected packet length average = 1
Accepted packet length average = 1
Total in-flight flits = 38 (38 measured)
latency change    = 0.37442
throughput change = 0.0346667
Class 0:
Packet latency average = 97.7785
	minimum = 7
	maximum = 1091
Network latency average = 47.3624
	minimum = 7
	maximum = 441
Slowest packet = 1135
Flit latency average = 50.9677
	minimum = 7
	maximum = 441
Slowest flit = 1731
Fragmentation average = 0
	minimum = 0
	maximum = 0
Injected packet rate average = 0.0463333
	minimum = 0.024 (at node 3)
	maximum = 0.064 (at node 14)
Accepted packet rate average = 0.0464167
	minimum = 0.026 (at node 12)
	maximum = 0.064 (at node 11)
Injected flit rate average = 0.0463333
	minimum = 0.024 (at node 3)
	maximum = 0.064 (at node 14)
Accepted flit rate average= 0.0464167
	minimum = 0.026 (at node 12)
	maximum = 0.064 (at node 11)
Injected packet length average = 1
Accepted packet length average = 1
Total in-flight flits = 34 (34 measured)
latency change    = 0.105056
throughput change = 0.00987433
Class 0:
Packet latency average = 103.109
	minimum = 7
	maximum = 1338
Network latency average = 47.4425
	minimum = 7
	maximum = 474
Slowest packet = 1135
Flit latency average = 50.1236
	minimum = 7
	maximum = 474
Slowest flit = 2173
Fragmentation average = 0
	minimum = 0
	maximum = 0
Injected packet rate average = 0.047125
	minimum = 0.025 (at node 3)
	maximum = 0.0595 (at node 14)
Accepted packet rate average = 0.0467813
	minimum = 0.025 (at node 12)
	maximum = 0.0595 (at node 11)
Injected flit rate average = 0.047125
	minimum = 0.025 (at node 3)
	maximum = 0.0595 (at node 14)
Accepted flit rate average= 0.0467813
	minimum = 0.025 (at node 12)
	maximum = 0.0595 (at node 11)
Injected packet length average = 1
Accepted packet length average = 1
Total in-flight flits = 48 (48 measured)
latency change    = 0.0517018
throughput change = 0.00779336
Class 0:
Packet latency average = 110.868
	minimum = 7
	maximum = 1616
Network latency average = 47.972
	minimum = 7
	maximum = 488
Slowest packet = 1135
Flit latency average = 50.0802
	minimum = 7
	maximum = 488
Slowest flit = 2248
Fragmentation average = 0
	minimum = 0
	maximum = 0
Injected packet rate average = 0.0476
	minimum = 0.0248 (at node 3)
	maximum = 0.0596 (at node 1)
Accepted packet rate average = 0.047375
	minimum = 0.0256 (at node 12)
	maximum = 0.0576 (at node 4)
Injected flit rate average = 0.0476
	minimum = 0.0248 (at node 3)
	maximum = 0.0596 (at node 1)
Accepted flit rate average= 0.047375
	minimum = 0.0256 (at node 12)
	maximum = 0.0576 (at node 4)
Injected packet length average = 1
Accepted packet length average = 1
Total in-flight flits = 46 (46 measured)
latency change    = 0.0699825
throughput change = 0.012533
Class 0:
Packet latency average = 117.788
	minimum = 7
	maximum = 1850
Network latency average = 48.2679
	minimum = 7
	maximum = 488
Slowest packet = 1135
Flit latency average = 50.0171
	minimum = 7
	maximum = 488
Slowest flit = 2248
Fragmentation average = 0
	minimum = 0
	maximum = 0
Injected packet rate average = 0.0476042
	minimum = 0.0243333 (at node 3)
	maximum = 0.0576667 (at node 1)
Accepted packet rate average = 0.0474583
	minimum = 0.025 (at node 12)
	maximum = 0.0576667 (at node 11)
Injected flit rate average = 0.0476042
	minimum = 0.0243333 (at node 3)
	maximum = 0.0576667 (at node 1)
Accepted flit rate average= 0.0474583
	minimum = 0.025 (at node 12)
	maximum = 0.0576667 (at node 11)
Injected packet length average = 1
Accepted packet length average = 1
Total in-flight flits = 43 (43 measured)
latency change    = 0.0587455
throughput change = 0.00175593
Class 0:
Packet latency average = 126.423
	minimum = 7
	maximum = 2158
Network latency average = 48.4992
	minimum = 7
	maximum = 491
Slowest packet = 1135
Flit latency average = 49.9903
	minimum = 7
	maximum = 491
Slowest flit = 3110
Fragmentation average = 0
	minimum = 0
	maximum = 0
Injected packet rate average = 0.0476429
	minimum = 0.0245714 (at node 3)
	maximum = 0.058 (at node 1)
Accepted packet rate average = 0.047625
	minimum = 0.0251429 (at node 12)
	maximum = 0.0574286 (at node 4)
Injected flit rate average = 0.0476429
	minimum = 0.0245714 (at node 3)
	maximum = 0.058 (at node 1)
Accepted flit rate average= 0.047625
	minimum = 0.0251429 (at node 12)
	maximum = 0.0574286 (at node 4)
Injected packet length average = 1
Accepted packet length average = 1
Total in-flight flits = 37 (37 measured)
latency change    = 0.068306
throughput change = 0.00349956
Draining all recorded packets ...
Class 0:
Remaining flits: 4271 4301 4361 4370 4382 4426 4463 4470 4473 4488 [...] (40 flits)
Measured flits: 4271 4301 4361 4370 4382 4426 4473 4489 4498 4506 [...] (17 flits)
Class 0:
Remaining flits: 5033 5051 5105 5106 5152 5164 5223 5234 5238 5246 [...] (38 flits)
Measured flits: 5033 5051 5105 5106 5152 5164 5223 5234 5248 5259 [...] (16 flits)
Class 0:
Remaining flits: 5831 5847 5862 5910 5921 5959 5968 5972 5974 5981 [...] (43 flits)
Measured flits: 5831 5847 5862 5910 5921 5959 5968 5972 6011 6016 [...] (17 flits)
Class 0:
Remaining flits: 6543 6574 6619 6622 6659 6678 6701 6704 6711 6735 [...] (47 flits)
Measured flits: 6543 6622 6659 6711 6735 6744 6776 (7 flits)
Draining remaining packets ...
Time taken is 10121 cycles
Class 0:
Packet latency average = 31.8639
	minimum = 7
	maximum = 265
Network latency average = 31.7833
	minimum = 7
	maximum = 247
Slowest packet = 7689
Flit latency average = 31.7833
	minimum = 7
	maximum = 247
Slowest flit = 7689
Fragmentation average = 0
	minimum = 0
	maximum = 0
Injected packet rate average = 0.04875
	minimum = 0.034 (at node 6)
	maximum = 0.066 (at node 7)
Accepted packet rate average = 0.045
	minimum = 0.03 (at node 7)
	maximum = 0.06 (at node 13)
Injected flit rate average = 0.04875
	minimum = 0.034 (at node 6)
	maximum = 0.066 (at node 7)
Accepted flit rate average= 0.045
	minimum = 0.03 (at node 7)
	maximum = 0.06 (at node 13)
Injected packet length average = 1
Accepted packet length average = 1
Total in-flight flits = 31 (0 measured)
latency change    = 1
throughput change = 1
Class 0:
Packet latency average = 38.977
	minimum = 7
	maximum = 430
Network latency average = 36.571
	minimum = 7
	maximum = 295
Slowest packet = 7790
Flit latency average = 36.571
	minimum = 7
	maximum = 295
Slowest flit = 8030
Fragmentation average = 0
	minimum = 0
	maximum = 0
Injected packet rate average = 0.048875
	minimum = 0.036 (at node 12)
	maximum = 0.059 (at node 15)
Accepted packet rate average = 0.0461875
	minimum = 0.03 (at node 3)
	maximum = 0.058 (at node 15)
Injected flit rate average = 0.048875
	minimum = 0.036 (at node 12)
	maximum = 0.059 (at node 15)
Accepted flit rate average= 0.0461875
	minimum = 0.03 (at node 3)
	maximum = 0.058 (at node 15)
Injected packet length average = 1
Accepted packet length average = 1
Total in-flight flits = 47 (0 measured)
latency change    = 0.182495
throughput change = 0.0257104
Class 0:
Packet latency average = 73.0413
	minimum = 7
	maximum = 715
Network latency average = 49.4574
	minimum = 7
	maximum = 371
Slowest packet = 8134
Flit latency average = 49.4574
	minimum = 7
	maximum = 371
Slowest flit = 8241
Fragmentation average = 0
	minimum = 0
	maximum = 0
Injected packet rate average = 0.048125
	minimum = 0.026 (at node 3)
	maximum = 0.07 (at node 1)
Accepted packet rate average = 0.048375
	minimum = 0.024 (at node 3)
	maximum = 0.07 (at node 4)
Injected flit rate average = 0.048125
	minimum = 0.026 (at node 3)
	maximum = 0.07 (at node 1)
Accepted flit rate average= 0.048375
	minimum = 0.024 (at node 3)
	maximum = 0.07 (at node 4)
Injected packet length average = 1
Accepted packet length average = 1
Total in-flight flits = 45 (0 measured)
latency change    = 0.466371
throughput change = 0.0452196
Warmed up ...Time used is 1500 cycles
Class 0:
Packet latency average = 59.4606
	minimum = 7
	maximum = 1006
Network latency average = 35.6268
	minimum = 7
	maximum = 396
Slowest packet = 8741
Flit latency average = 49.2423
	minimum = 7
	maximum = 396
Slowest flit = 8784
Fragmentation average = 0
	minimum = 0
	maximum = 0
Injected packet rate average = 0.047625
	minimum = 0.024 (at node 3)
	maximum = 0.068 (at node 15)
Accepted packet rate average = 0.0485
	minimum = 0.024 (at node 12)
	maximum = 0.068 (at node 15)
Injected flit rate average = 0.047625
	minimum = 0.024 (at node 3)
	maximum = 0.068 (at node 15)
Accepted flit rate average= 0.0485
	minimum = 0.024 (at node 12)
	maximum = 0.068 (at node 15)
Injected packet length average = 1
Accepted packet length average = 1
Total in-flight flits = 38 (38 measured)
latency change    = 0.228398
throughput change = 0.00257732
Class 0:
Packet latency average = 86.2048
	minimum = 7
	maximum = 1324
Network latency average = 44.8093
	minimum = 7
	maximum = 399
Slowest packet = 8741
Flit latency average = 51.2762
	minimum = 7
	maximum = 399
Slowest flit = 9043
Fragmentation average = 0
	minimum = 0
	maximum = 0
Injected packet rate average = 0.047
	minimum = 0.022 (at node 3)
	maximum = 0.061 (at node 6)
Accepted packet rate average = 0.0470625
	minimum = 0.024 (at node 12)
	maximum = 0.061 (at node 9)
Injected flit rate average = 0.047
	minimum = 0.022 (at node 3)
	maximum = 0.061 (at node 6)
Accepted flit rate average= 0.0470625
	minimum = 0.024 (at node 12)
	maximum = 0.061 (at node 9)
Injected packet length average = 1
Accepted packet length average = 1
Total in-flight flits = 44 (44 measured)
latency change    = 0.31024
throughput change = 0.0305445
Class 0:
Packet latency average = 99.6442
	minimum = 7
	maximum = 1599
Network latency average = 46.5678
	minimum = 7
	maximum = 472
Slowest packet = 8741
Flit latency average = 50.7552
	minimum = 7
	maximum = 472
Slowest flit = 9303
Fragmentation average = 0
	minimum = 0
	maximum = 0
Injected packet rate average = 0.0472917
	minimum = 0.022 (at node 3)
	maximum = 0.0593333 (at node 6)
Accepted packet rate average = 0.0476667
	minimum = 0.0226667 (at node 12)
	maximum = 0.0586667 (at node 9)
Injected flit rate average = 0.0472917
	minimum = 0.022 (at node 3)
	maximum = 0.0593333 (at node 6)
Accepted flit rate average= 0.0476667
	minimum = 0.0226667 (at node 12)
	maximum = 0.0586667 (at node 9)
Injected packet length average = 1
Accepted packet length average = 1
Total in-flight flits = 35 (35 measured)
latency change    = 0.134874
throughput change = 0.0126748
Class 0:
Packet latency average = 116.452
	minimum = 7
	maximum = 1889
Network latency average = 47.0959
	minimum = 7
	maximum = 472
Slowest packet = 8741
Flit latency average = 50.2631
	minimum = 7
	maximum = 472
Slowest flit = 9303
Fragmentation average = 0
	minimum = 0
	maximum = 0
Injected packet rate average = 0.0468438
	minimum = 0.0235 (at node 3)
	maximum = 0.0565 (at node 6)
Accepted packet rate average = 0.0470312
	minimum = 0.024 (at node 12)
	maximum = 0.0565 (at node 9)
Injected flit rate average = 0.0468438
	minimum = 0.0235 (at node 3)
	maximum = 0.0565 (at node 6)
Accepted flit rate average= 0.0470312
	minimum = 0.024 (at node 12)
	maximum = 0.0565 (at node 9)
Injected packet length average = 1
Accepted packet length average = 1
Total in-flight flits = 37 (37 measured)
latency change    = 0.144333
throughput change = 0.0135105
Class 0:
Packet latency average = 130.257
	minimum = 7
	maximum = 1993
Network latency average = 46.8519
	minimum = 7
	maximum = 472
Slowest packet = 8741
Flit latency average = 49.3824
	minimum = 7
	maximum = 472
Slowest flit = 9303
Fragmentation average = 0
	minimum = 0
	maximum = 0
Injected packet rate average = 0.047075
	minimum = 0.0272 (at node 3)
	maximum = 0.0568 (at node 6)
Accepted packet rate average = 0.0472
	minimum = 0.028 (at node 12)
	maximum = 0.0564 (at node 9)
Injected flit rate average = 0.047075
	minimum = 0.0272 (at node 3)
	maximum = 0.0568 (at node 6)
Accepted flit rate average= 0.0472
	minimum = 0.028 (at node 12)
	maximum = 0.0564 (at node 9)
Injected packet length average = 1
Accepted packet length average = 1
Total in-flight flits = 39 (39 measured)
latency change    = 0.10598
throughput change = 0.00357521
Class 0:
Packet latency average = 140.418
	minimum = 7
	maximum = 2319
Network latency average = 46.8465
	minimum = 7
	maximum = 496
Slowest packet = 8741
Flit latency average = 48.9485
	minimum = 7
	maximum = 496
Slowest flit = 10411
Fragmentation average = 0
	minimum = 0
	maximum = 0
Injected packet rate average = 0.0471667
	minimum = 0.0283333 (at node 3)
	maximum = 0.055 (at node 11)
Accepted packet rate average = 0.0473542
	minimum = 0.028 (at node 12)
	maximum = 0.0546667 (at node 14)
Injected flit rate average = 0.0471667
	minimum = 0.0283333 (at node 3)
	maximum = 0.055 (at node 11)
Accepted flit rate average= 0.0473542
	minimum = 0.028 (at node 12)
	maximum = 0.0546667 (at node 14)
Injected packet length average = 1
Accepted packet length average = 1
Total in-flight flits = 34 (34 measured)
latency change    = 0.0723641
throughput change = 0.00325561
Class 0:
Packet latency average = 149.875
	minimum = 7
	maximum = 2569
Network latency average = 46.3057
	minimum = 7
	maximum = 496
Slowest packet = 8741
Flit latency average = 48.1206
	minimum = 7
	maximum = 496
Slowest flit = 10411
Fragmentation average = 0
	minimum = 0
	maximum = 0
Injected packet rate average = 0.0471071
	minimum = 0.0288571 (at node 3)
	maximum = 0.0534286 (at node 6)
Accepted packet rate average = 0.04725
	minimum = 0.0288571 (at node 12)
	maximum = 0.0534286 (at node 9)
Injected flit rate average = 0.0471071
	minimum = 0.0288571 (at node 3)
	maximum = 0.0534286 (at node 6)
Accepted flit rate average= 0.04725
	minimum = 0.0288571 (at node 12)
	maximum = 0.0534286 (at node 9)
Injected packet length average = 1
Accepted packet length average = 1
Total in-flight flits = 36 (36 measured)
latency change    = 0.0631029
throughput change = 0.00220459
Draining all recorded packets ...
Class 0:
Remaining flits: 11892 11904 11915 11945 11968 11973 11992 12012 12028 12033 [...] (43 flits)
Measured flits: 11892 11904 11915 11945 11968 11992 12012 12028 12033 12037 [...] (16 flits)
Class 0:
Remaining flits: 12586 12588 12602 12614 12653 12698 12705 12708 12736 12758 [...] (46 flits)
Measured flits: 12586 12588 12602 12614 12653 12698 12705 12708 12736 12758 [...] (19 flits)
Class 0:
Remaining flits: 13378 13424 13452 13465 13467 13506 13546 13553 13556 13570 [...] (36 flits)
Measured flits: 13378 13452 13467 13570 13579 13581 13586 13635 13644 (9 flits)
Class 0:
Remaining flits: 14089 14098 14144 14192 14205 14221 14228 14242 14264 14270 [...] (48 flits)
Measured flits: 14098 14192 14221 14228 14292 14330 14331 14354 (8 flits)
Draining remaining packets ...
Time taken is 9770 cycles
Class 0:
Packet latency average = 27.3443
	minimum = 7
	maximum = 176
Network latency average = 27.3263
	minimum = 7
	maximum = 176
Slowest packet = 15057
Flit latency average = 27.3263
	minimum = 7
	maximum = 176
Slowest flit = 15057
Fragmentation average = 0
	minimum = 0
	maximum = 0
Injected packet rate average = 0.045375
	minimum = 0.032 (at node 4)
	maximum = 0.062 (at node 1)
Accepted packet rate average = 0.04175
	minimum = 0.03 (at node 2)
	maximum = 0.058 (at node 13)
Injected flit rate average = 0.045375
	minimum = 0.032 (at node 4)
	maximum = 0.062 (at node 1)
Accepted flit rate average= 0.04175
	minimum = 0.03 (at node 2)
	maximum = 0.058 (at node 13)
Injected packet length average = 1
Accepted packet length average = 1
Total in-flight flits = 29 (0 measured)
latency change    = 1
throughput change = 1
Class 0:
Packet latency average = 35.6031
	minimum = 7
	maximum = 398
Network latency average = 33.8559
	minimum = 7
	maximum = 361
Slowest packet = 15282
Flit latency average = 33.8559
	minimum = 7
	maximum = 361
Slowest flit = 15282
Fragmentation average = 0
	minimum = 0
	maximum = 0
Injected packet rate average = 0.0468125
	minimum = 0.038 (at node 15)
	maximum = 0.058 (at node 0)
Accepted packet rate average = 0.04425
	minimum = 0.033 (at node 3)
	maximum = 0.057 (at node 0)
Injected flit rate average = 0.0468125
	minimum = 0.038 (at node 15)
	maximum = 0.058 (at node 0)
Accepted flit rate average= 0.04425
	minimum = 0.033 (at node 3)
	maximum = 0.057 (at node 0)
Injected packet length average = 1
Accepted packet length average = 1
Total in-flight flits = 44 (0 measured)
latency change    = 0.231968
throughput change = 0.0564972
Class 0:
Packet latency average = 68.3932
	minimum = 7
	maximum = 588
Network latency average = 50.4843
	minimum = 7
	maximum = 420
Slowest packet = 15320
Flit latency average = 50.4843
	minimum = 7
	maximum = 420
Slowest flit = 15616
Fragmentation average = 0
	minimum = 0
	maximum = 0
Injected packet rate average = 0.043625
	minimum = 0.028 (at node 5)
	maximum = 0.056 (at node 1)
Accepted packet rate average = 0.043875
	minimum = 0.024 (at node 3)
	maximum = 0.056 (at node 4)
Injected flit rate average = 0.043625
	minimum = 0.028 (at node 5)
	maximum = 0.056 (at node 1)
Accepted flit rate average= 0.043875
	minimum = 0.024 (at node 3)
	maximum = 0.056 (at node 4)
Injected packet length average = 1
Accepted packet length average = 1
Total in-flight flits = 42 (0 measured)
latency change    = 0.479435
throughput change = 0.00854701
Warmed up ...Time used is 1500 cycles
Class 0:
Packet latency average = 46.4713
	minimum = 7
	maximum = 831
Network latency average = 32.8448
	minimum = 7
	maximum = 228
Slowest packet = 15963
Flit latency average = 47.2872
	minimum = 7
	maximum = 445
Slowest flit = 15862
Fragmentation average = 0
	minimum = 0
	maximum = 0
Injected packet rate average = 0.048
	minimum = 0.022 (at node 12)
	maximum = 0.058 (at node 0)
Accepted packet rate average = 0.04875
	minimum = 0.024 (at node 3)
	maximum = 0.064 (at node 13)
Injected flit rate average = 0.048
	minimum = 0.022 (at node 12)
	maximum = 0.058 (at node 0)
Accepted flit rate average= 0.04875
	minimum = 0.024 (at node 3)
	maximum = 0.064 (at node 13)
Injected packet length average = 1
Accepted packet length average = 1
Total in-flight flits = 36 (36 measured)
latency change    = 0.47173
throughput change = 0.1
Class 0:
Packet latency average = 79.0627
	minimum = 7
	maximum = 1277
Network latency average = 42.0975
	minimum = 7
	maximum = 474
Slowest packet = 15963
Flit latency average = 48.9974
	minimum = 7
	maximum = 474
Slowest flit = 15952
Fragmentation average = 0
	minimum = 0
	maximum = 0
Injected packet rate average = 0.0478125
	minimum = 0.024 (at node 12)
	maximum = 0.057 (at node 0)
Accepted packet rate average = 0.0475
	minimum = 0.026 (at node 3)
	maximum = 0.058 (at node 13)
Injected flit rate average = 0.0478125
	minimum = 0.024 (at node 12)
	maximum = 0.057 (at node 0)
Accepted flit rate average= 0.0475
	minimum = 0.026 (at node 3)
	maximum = 0.058 (at node 13)
Injected packet length average = 1
Accepted packet length average = 1
Total in-flight flits = 47 (47 measured)
latency change    = 0.412222
throughput change = 0.0263158
Class 0:
Packet latency average = 97.238
	minimum = 7
	maximum = 1349
Network latency average = 43.9825
	minimum = 7
	maximum = 474
Slowest packet = 15963
Flit latency average = 48.5693
	minimum = 7
	maximum = 474
Slowest flit = 15952
Fragmentation average = 0
	minimum = 0
	maximum = 0
Injected packet rate average = 0.0469167
	minimum = 0.0266667 (at node 12)
	maximum = 0.056 (at node 5)
Accepted packet rate average = 0.0469167
	minimum = 0.0273333 (at node 3)
	maximum = 0.0553333 (at node 0)
Injected flit rate average = 0.0469167
	minimum = 0.0266667 (at node 12)
	maximum = 0.056 (at node 5)
Accepted flit rate average= 0.0469167
	minimum = 0.0273333 (at node 3)
	maximum = 0.0553333 (at node 0)
Injected packet length average = 1
Accepted packet length average = 1
Total in-flight flits = 43 (43 measured)
latency change    = 0.186916
throughput change = 0.0124334
Class 0:
Packet latency average = 105.039
	minimum = 7
	maximum = 1647
Network latency average = 45.5448
	minimum = 7
	maximum = 474
Slowest packet = 15963
Flit latency average = 48.9625
	minimum = 7
	maximum = 474
Slowest flit = 15952
Fragmentation average = 0
	minimum = 0
	maximum = 0
Injected packet rate average = 0.0465313
	minimum = 0.026 (at node 12)
	maximum = 0.057 (at node 5)
Accepted packet rate average = 0.046625
	minimum = 0.027 (at node 3)
	maximum = 0.057 (at node 5)
Injected flit rate average = 0.0465313
	minimum = 0.026 (at node 12)
	maximum = 0.057 (at node 5)
Accepted flit rate average= 0.046625
	minimum = 0.027 (at node 3)
	maximum = 0.057 (at node 5)
Injected packet length average = 1
Accepted packet length average = 1
Total in-flight flits = 38 (38 measured)
latency change    = 0.0742703
throughput change = 0.00625559
Class 0:
Packet latency average = 112.587
	minimum = 7
	maximum = 1933
Network latency average = 46.1841
	minimum = 7
	maximum = 515
Slowest packet = 15963
Flit latency average = 48.8692
	minimum = 7
	maximum = 515
Slowest flit = 17140
Fragmentation average = 0
	minimum = 0
	maximum = 0
Injected packet rate average = 0.046975
	minimum = 0.026 (at node 12)
	maximum = 0.056 (at node 5)
Accepted packet rate average = 0.047225
	minimum = 0.0264 (at node 3)
	maximum = 0.056 (at node 5)
Injected flit rate average = 0.046975
	minimum = 0.026 (at node 12)
	maximum = 0.056 (at node 5)
Accepted flit rate average= 0.047225
	minimum = 0.0264 (at node 3)
	maximum = 0.056 (at node 5)
Injected packet length average = 1
Accepted packet length average = 1
Total in-flight flits = 31 (31 measured)
latency change    = 0.0670379
throughput change = 0.0127051
Class 0:
Packet latency average = 125.984
	minimum = 7
	maximum = 2133
Network latency average = 46.2941
	minimum = 7
	maximum = 515
Slowest packet = 15963
Flit latency average = 48.5474
	minimum = 7
	maximum = 515
Slowest flit = 17140
Fragmentation average = 0
	minimum = 0
	maximum = 0
Injected packet rate average = 0.0468125
	minimum = 0.026 (at node 12)
	maximum = 0.055 (at node 0)
Accepted packet rate average = 0.0468542
	minimum = 0.026 (at node 3)
	maximum = 0.0553333 (at node 0)
Injected flit rate average = 0.0468125
	minimum = 0.026 (at node 12)
	maximum = 0.055 (at node 0)
Accepted flit rate average= 0.0468542
	minimum = 0.026 (at node 3)
	maximum = 0.0553333 (at node 0)
Injected packet length average = 1
Accepted packet length average = 1
Total in-flight flits = 40 (40 measured)
latency change    = 0.106338
throughput change = 0.00791463
Class 0:
Packet latency average = 137.531
	minimum = 7
	maximum = 2498
Network latency average = 46.953
	minimum = 7
	maximum = 515
Slowest packet = 15963
Flit latency average = 48.8789
	minimum = 7
	maximum = 515
Slowest flit = 17140
Fragmentation average = 0
	minimum = 0
	maximum = 0
Injected packet rate average = 0.0466964
	minimum = 0.0257143 (at node 12)
	maximum = 0.0577143 (at node 11)
Accepted packet rate average = 0.0467321
	minimum = 0.0262857 (at node 3)
	maximum = 0.0574286 (at node 14)
Injected flit rate average = 0.0466964
	minimum = 0.0257143 (at node 12)
	maximum = 0.0577143 (at node 11)
Accepted flit rate average= 0.0467321
	minimum = 0.0262857 (at node 3)
	maximum = 0.0574286 (at node 14)
Injected packet length average = 1
Accepted packet length average = 1
Total in-flight flits = 40 (40 measured)
latency change    = 0.0839633
throughput change = 0.00261113
Draining all recorded packets ...
Class 0:
Remaining flits: 19025 19063 19113 19114 19118 19160 19187 19191 19193 19218 [...] (36 flits)
Measured flits: 19025 19063 19113 19114 19118 19160 19187 19218 19229 19231 [...] (15 flits)
Class 0:
Remaining flits: 19738 19782 19809 19831 19846 19892 19911 19917 19937 19942 [...] (43 flits)
Measured flits: 19738 19782 19809 19831 19846 19892 19911 19917 19937 19942 [...] (17 flits)
Class 0:
Remaining flits: 20435 20436 20493 20538 20572 20574 20618 20621 20641 20642 [...] (41 flits)
Measured flits: 20435 20436 20493 20538 20572 20574 20618 20621 20642 20688 [...] (16 flits)
Class 0:
Remaining flits: 21143 21159 21235 21242 21273 21293 21336 21337 21340 21343 [...] (40 flits)
Measured flits: 21143 21159 21235 21242 21273 21293 21336 21337 21340 21343 [...] (15 flits)
Draining remaining packets ...
Time taken is 9998 cycles
Class 0:
Packet latency average = 33.8991
	minimum = 7
	maximum = 295
Network latency average = 33.7567
	minimum = 7
	maximum = 278
Slowest packet = 22273
Flit latency average = 33.7567
	minimum = 7
	maximum = 278
Slowest flit = 22273
Fragmentation average = 0
	minimum = 0
	maximum = 0
Injected packet rate average = 0.04675
	minimum = 0.038 (at node 1)
	maximum = 0.068 (at node 2)
Accepted packet rate average = 0.042125
	minimum = 0.026 (at node 12)
	maximum = 0.062 (at node 1)
Injected flit rate average = 0.04675
	minimum = 0.038 (at node 1)
	maximum = 0.068 (at node 2)
Accepted flit rate average= 0.042125
	minimum = 0.026 (at node 12)
	maximum = 0.062 (at node 1)
Injected packet length average = 1
Accepted packet length average = 1
Total in-flight flits = 40 (0 measured)
latency change    = 1
throughput change = 1
Class 0:
Packet latency average = 49.9794
	minimum = 7
	maximum = 640
Network latency average = 41.6529
	minimum = 7
	maximum = 405
Slowest packet = 22324
Flit latency average = 41.6529
	minimum = 7
	maximum = 405
Slowest flit = 22324
Fragmentation average = 0
	minimum = 0
	maximum = 0
Injected packet rate average = 0.0479375
	minimum = 0.036 (at node 3)
	maximum = 0.055 (at node 2)
Accepted packet rate average = 0.0455625
	minimum = 0.026 (at node 12)
	maximum = 0.053 (at node 1)
Injected flit rate average = 0.0479375
	minimum = 0.036 (at node 3)
	maximum = 0.055 (at node 2)
Accepted flit rate average= 0.0455625
	minimum = 0.026 (at node 12)
	maximum = 0.053 (at node 1)
Injected packet length average = 1
Accepted packet length average = 1
Total in-flight flits = 41 (0 measured)
latency change    = 0.321739
throughput change = 0.0754458
Class 0:
Packet latency average = 78.8285
	minimum = 7
	maximum = 979
Network latency average = 44.9976
	minimum = 7
	maximum = 413
Slowest packet = 22616
Flit latency average = 44.9976
	minimum = 7
	maximum = 413
Slowest flit = 22878
Fragmentation average = 0
	minimum = 0
	maximum = 0
Injected packet rate average = 0.051375
	minimum = 0.022 (at node 12)
	maximum = 0.08 (at node 0)
Accepted packet rate average = 0.05175
	minimum = 0.02 (at node 3)
	maximum = 0.082 (at node 0)
Injected flit rate average = 0.051375
	minimum = 0.022 (at node 12)
	maximum = 0.08 (at node 0)
Accepted flit rate average= 0.05175
	minimum = 0.02 (at node 3)
	maximum = 0.082 (at node 0)
Injected packet length average = 1
Accepted packet length average = 1
Total in-flight flits = 38 (0 measured)
latency change    = 0.365973
throughput change = 0.119565
Warmed up ...Time used is 1500 cycles
Class 0:
Packet latency average = 68.8661
	minimum = 7
	maximum = 1154
Network latency average = 35.1595
	minimum = 7
	maximum = 344
Slowest packet = 23307
Flit latency average = 46
	minimum = 7
	maximum = 423
Slowest flit = 22940
Fragmentation average = 0
	minimum = 0
	maximum = 0
Injected packet rate average = 0.04875
	minimum = 0.03 (at node 12)
	maximum = 0.07 (at node 6)
Accepted packet rate average = 0.048625
	minimum = 0.03 (at node 12)
	maximum = 0.07 (at node 15)
Injected flit rate average = 0.04875
	minimum = 0.03 (at node 12)
	maximum = 0.07 (at node 6)
Accepted flit rate average= 0.048625
	minimum = 0.03 (at node 12)
	maximum = 0.07 (at node 15)
Injected packet length average = 1
Accepted packet length average = 1
Total in-flight flits = 39 (39 measured)
latency change    = 0.144663
throughput change = 0.0642674
Class 0:
Packet latency average = 99.1812
	minimum = 7
	maximum = 1423
Network latency average = 41.5858
	minimum = 7
	maximum = 425
Slowest packet = 23307
Flit latency average = 46.7319
	minimum = 7
	maximum = 425
Slowest flit = 23372
Fragmentation average = 0
	minimum = 0
	maximum = 0
Injected packet rate average = 0.048375
	minimum = 0.028 (at node 12)
	maximum = 0.062 (at node 15)
Accepted packet rate average = 0.04825
	minimum = 0.028 (at node 3)
	maximum = 0.064 (at node 15)
Injected flit rate average = 0.048375
	minimum = 0.028 (at node 12)
	maximum = 0.062 (at node 15)
Accepted flit rate average= 0.04825
	minimum = 0.028 (at node 3)
	maximum = 0.064 (at node 15)
Injected packet length average = 1
Accepted packet length average = 1
Total in-flight flits = 39 (39 measured)
latency change    = 0.305654
throughput change = 0.00777202
Class 0:
Packet latency average = 106.911
	minimum = 7
	maximum = 1707
Network latency average = 43.8233
	minimum = 7
	maximum = 425
Slowest packet = 23307
Flit latency average = 47.1951
	minimum = 7
	maximum = 425
Slowest flit = 23372
Fragmentation average = 0
	minimum = 0
	maximum = 0
Injected packet rate average = 0.048375
	minimum = 0.0273333 (at node 12)
	maximum = 0.0593333 (at node 10)
Accepted packet rate average = 0.0480417
	minimum = 0.028 (at node 3)
	maximum = 0.0593333 (at node 10)
Injected flit rate average = 0.048375
	minimum = 0.0273333 (at node 12)
	maximum = 0.0593333 (at node 10)
Accepted flit rate average= 0.0480417
	minimum = 0.028 (at node 3)
	maximum = 0.0593333 (at node 10)
Injected packet length average = 1
Accepted packet length average = 1
Total in-flight flits = 46 (46 measured)
latency change    = 0.0723031
throughput change = 0.00433651
Class 0:
Packet latency average = 116.359
	minimum = 7
	maximum = 1978
Network latency average = 45.1251
	minimum = 7
	maximum = 425
Slowest packet = 23307
Flit latency average = 47.642
	minimum = 7
	maximum = 425
Slowest flit = 23372
Fragmentation average = 0
	minimum = 0
	maximum = 0
Injected packet rate average = 0.0478125
	minimum = 0.0275 (at node 12)
	maximum = 0.0605 (at node 15)
Accepted packet rate average = 0.0476562
	minimum = 0.0275 (at node 3)
	maximum = 0.061 (at node 15)
Injected flit rate average = 0.0478125
	minimum = 0.0275 (at node 12)
	maximum = 0.0605 (at node 15)
Accepted flit rate average= 0.0476562
	minimum = 0.0275 (at node 3)
	maximum = 0.061 (at node 15)
Injected packet length average = 1
Accepted packet length average = 1
Total in-flight flits = 44 (44 measured)
latency change    = 0.0811961
throughput change = 0.00808743
Class 0:
Packet latency average = 125.179
	minimum = 7
	maximum = 2260
Network latency average = 46.2243
	minimum = 7
	maximum = 425
Slowest packet = 23307
Flit latency average = 48.2298
	minimum = 7
	maximum = 425
Slowest flit = 23372
Fragmentation average = 0
	minimum = 0
	maximum = 0
Injected packet rate average = 0.04755
	minimum = 0.0268 (at node 12)
	maximum = 0.058 (at node 15)
Accepted packet rate average = 0.047325
	minimum = 0.0268 (at node 3)
	maximum = 0.0584 (at node 15)
Injected flit rate average = 0.04755
	minimum = 0.0268 (at node 12)
	maximum = 0.058 (at node 15)
Accepted flit rate average= 0.047325
	minimum = 0.0268 (at node 3)
	maximum = 0.0584 (at node 15)
Injected packet length average = 1
Accepted packet length average = 1
Total in-flight flits = 47 (47 measured)
latency change    = 0.070458
throughput change = 0.00699947
Class 0:
Packet latency average = 141.038
	minimum = 7
	maximum = 2420
Network latency average = 46.8234
	minimum = 7
	maximum = 425
Slowest packet = 23307
Flit latency average = 48.4909
	minimum = 7
	maximum = 425
Slowest flit = 23372
Fragmentation average = 0
	minimum = 0
	maximum = 0
Injected packet rate average = 0.0469792
	minimum = 0.0286667 (at node 12)
	maximum = 0.0556667 (at node 1)
Accepted packet rate average = 0.0471458
	minimum = 0.0286667 (at node 3)
	maximum = 0.0553333 (at node 4)
Injected flit rate average = 0.0469792
	minimum = 0.0286667 (at node 12)
	maximum = 0.0556667 (at node 1)
Accepted flit rate average= 0.0471458
	minimum = 0.0286667 (at node 3)
	maximum = 0.0553333 (at node 4)
Injected packet length average = 1
Accepted packet length average = 1
Total in-flight flits = 29 (29 measured)
latency change    = 0.112446
throughput change = 0.00380027
Class 0:
Packet latency average = 153.239
	minimum = 7
	maximum = 2443
Network latency average = 45.9091
	minimum = 7
	maximum = 425
Slowest packet = 23307
Flit latency average = 47.3555
	minimum = 7
	maximum = 425
Slowest flit = 23372
Fragmentation average = 0
	minimum = 0
	maximum = 0
Injected packet rate average = 0.0469464
	minimum = 0.0294286 (at node 12)
	maximum = 0.0557143 (at node 1)
Accepted packet rate average = 0.0470179
	minimum = 0.0291429 (at node 3)
	maximum = 0.0557143 (at node 4)
Injected flit rate average = 0.0469464
	minimum = 0.0294286 (at node 12)
	maximum = 0.0557143 (at node 1)
Accepted flit rate average= 0.0470179
	minimum = 0.0291429 (at node 3)
	maximum = 0.0557143 (at node 4)
Injected packet length average = 1
Accepted packet length average = 1
Total in-flight flits = 33 (33 measured)
latency change    = 0.0796166
throughput change = 0.00272186
Draining all recorded packets ...
Class 0:
Remaining flits: 26368 26438 26517 26546 26568 26588 26590 26595 26597 26618 [...] (35 flits)
Measured flits: 26368 26438 26517 26546 26568 26588 26590 26595 26597 26629 [...] (17 flits)
Class 0:
Remaining flits: 27150 27239 27273 27278 27284 27292 27335 27365 27367 27371 [...] (30 flits)
Measured flits: 27150 27239 27273 27278 27284 27292 27335 27365 27367 27371 [...] (17 flits)
Class 0:
Remaining flits: 27887 27899 27965 27973 27981 28012 28019 28057 28070 28081 [...] (45 flits)
Measured flits: 27887 27965 28019 28081 28085 28136 28143 (7 flits)
Class 0:
Remaining flits: 28679 28701 28711 28726 28747 28768 28790 28798 28810 28826 [...] (36 flits)
Measured flits: 28679 28747 28790 28829 28837 28898 28908 28933 28939 (9 flits)
Draining remaining packets ...
Time taken is 9828 cycles
Class 0:
Packet latency average = 31.2304
	minimum = 7
	maximum = 262
Network latency average = 31.2304
	minimum = 7
	maximum = 262
Slowest packet = 29608
Flit latency average = 31.2304
	minimum = 7
	maximum = 262
Slowest flit = 29608
Fragmentation average = 0
	minimum = 0
	maximum = 0
Injected packet rate average = 0.050875
	minimum = 0.038 (at node 7)
	maximum = 0.07 (at node 11)
Accepted packet rate average = 0.046125
	minimum = 0.026 (at node 3)
	maximum = 0.066 (at node 14)
Injected flit rate average = 0.050875
	minimum = 0.038 (at node 7)
	maximum = 0.07 (at node 11)
Accepted flit rate average= 0.046125
	minimum = 0.026 (at node 3)
	maximum = 0.066 (at node 14)
Injected packet length average = 1
Accepted packet length average = 1
Total in-flight flits = 39 (0 measured)
latency change    = 1
throughput change = 1
Class 0:
Packet latency average = 39.7102
	minimum = 7
	maximum = 411
Network latency average = 38.0863
	minimum = 7
	maximum = 399
Slowest packet = 29794
Flit latency average = 38.0863
	minimum = 7
	maximum = 399
Slowest flit = 29794
Fragmentation average = 0
	minimum = 0
	maximum = 0
Injected packet rate average = 0.048625
	minimum = 0.03 (at node 12)
	maximum = 0.062 (at node 11)
Accepted packet rate average = 0.046375
	minimum = 0.023 (at node 3)
	maximum = 0.061 (at node 14)
Injected flit rate average = 0.048625
	minimum = 0.03 (at node 12)
	maximum = 0.062 (at node 11)
Accepted flit rate average= 0.046375
	minimum = 0.023 (at node 3)
	maximum = 0.061 (at node 14)
Injected packet length average = 1
Accepted packet length average = 1
Total in-flight flits = 38 (0 measured)
latency change    = 0.213544
throughput change = 0.00539084
Class 0:
Packet latency average = 63.3405
	minimum = 7
	maximum = 597
Network latency average = 48.2459
	minimum = 7
	maximum = 414
Slowest packet = 29872
Flit latency average = 48.2459
	minimum = 7
	maximum = 414
Slowest flit = 29872
Fragmentation average = 0
	minimum = 0
	maximum = 0
Injected packet rate average = 0.046375
	minimum = 0.026 (at node 12)
	maximum = 0.058 (at node 15)
Accepted packet rate average = 0.04625
	minimum = 0.026 (at node 3)
	maximum = 0.058 (at node 11)
Injected flit rate average = 0.046375
	minimum = 0.026 (at node 12)
	maximum = 0.058 (at node 15)
Accepted flit rate average= 0.04625
	minimum = 0.026 (at node 3)
	maximum = 0.058 (at node 11)
Injected packet length average = 1
Accepted packet length average = 1
Total in-flight flits = 40 (0 measured)
latency change    = 0.373068
throughput change = 0.0027027
Warmed up ...Time used is 1500 cycles
Class 0:
Packet latency average = 61.7492
	minimum = 7
	maximum = 688
Network latency average = 36.9228
	minimum = 7
	maximum = 326
Slowest packet = 30572
Flit latency average = 48.8405
	minimum = 7
	maximum = 367
Slowest flit = 30319
Fragmentation average = 0
	minimum = 0
	maximum = 0
Injected packet rate average = 0.043
	minimum = 0.03 (at node 11)
	maximum = 0.062 (at node 10)
Accepted packet rate average = 0.043875
	minimum = 0.03 (at node 12)
	maximum = 0.062 (at node 10)
Injected flit rate average = 0.043
	minimum = 0.03 (at node 11)
	maximum = 0.062 (at node 10)
Accepted flit rate average= 0.043875
	minimum = 0.03 (at node 12)
	maximum = 0.062 (at node 10)
Injected packet length average = 1
Accepted packet length average = 1
Total in-flight flits = 32 (32 measured)
latency change    = 0.0257711
throughput change = 0.0541311
Class 0:
Packet latency average = 71.9775
	minimum = 7
	maximum = 856
Network latency average = 40.8428
	minimum = 7
	maximum = 326
Slowest packet = 30572
Flit latency average = 46.5297
	minimum = 7
	maximum = 367
Slowest flit = 30319
Fragmentation average = 0
	minimum = 0
	maximum = 0
Injected packet rate average = 0.0440625
	minimum = 0.034 (at node 5)
	maximum = 0.058 (at node 10)
Accepted packet rate average = 0.04425
	minimum = 0.033 (at node 5)
	maximum = 0.059 (at node 10)
Injected flit rate average = 0.0440625
	minimum = 0.034 (at node 5)
	maximum = 0.058 (at node 10)
Accepted flit rate average= 0.04425
	minimum = 0.033 (at node 5)
	maximum = 0.059 (at node 10)
Injected packet length average = 1
Accepted packet length average = 1
Total in-flight flits = 37 (37 measured)
latency change    = 0.142105
throughput change = 0.00847458
Class 0:
Packet latency average = 80.2526
	minimum = 7
	maximum = 1049
Network latency average = 41.8505
	minimum = 7
	maximum = 428
Slowest packet = 30572
Flit latency average = 45.484
	minimum = 7
	maximum = 428
Slowest flit = 31069
Fragmentation average = 0
	minimum = 0
	maximum = 0
Injected packet rate average = 0.0458333
	minimum = 0.0346667 (at node 3)
	maximum = 0.0573333 (at node 10)
Accepted packet rate average = 0.0457083
	minimum = 0.0326667 (at node 12)
	maximum = 0.058 (at node 10)
Injected flit rate average = 0.0458333
	minimum = 0.0346667 (at node 3)
	maximum = 0.0573333 (at node 10)
Accepted flit rate average= 0.0457083
	minimum = 0.0326667 (at node 12)
	maximum = 0.058 (at node 10)
Injected packet length average = 1
Accepted packet length average = 1
Total in-flight flits = 41 (41 measured)
latency change    = 0.103113
throughput change = 0.0319052
Class 0:
Packet latency average = 88.4242
	minimum = 7
	maximum = 1153
Network latency average = 43.0583
	minimum = 7
	maximum = 428
Slowest packet = 30572
Flit latency average = 45.6887
	minimum = 7
	maximum = 428
Slowest flit = 31069
Fragmentation average = 0
	minimum = 0
	maximum = 0
Injected packet rate average = 0.046625
	minimum = 0.0315 (at node 3)
	maximum = 0.0575 (at node 10)
Accepted packet rate average = 0.0467813
	minimum = 0.0315 (at node 12)
	maximum = 0.058 (at node 10)
Injected flit rate average = 0.046625
	minimum = 0.0315 (at node 3)
	maximum = 0.0575 (at node 10)
Accepted flit rate average= 0.0467813
	minimum = 0.0315 (at node 12)
	maximum = 0.058 (at node 10)
Injected packet length average = 1
Accepted packet length average = 1
Total in-flight flits = 34 (34 measured)
latency change    = 0.0924132
throughput change = 0.0229348
Class 0:
Packet latency average = 91.9237
	minimum = 7
	maximum = 1311
Network latency average = 43.639
	minimum = 7
	maximum = 428
Slowest packet = 30572
Flit latency average = 45.7279
	minimum = 7
	maximum = 428
Slowest flit = 31069
Fragmentation average = 0
	minimum = 0
	maximum = 0
Injected packet rate average = 0.04685
	minimum = 0.03 (at node 3)
	maximum = 0.0536 (at node 7)
Accepted packet rate average = 0.04685
	minimum = 0.0296 (at node 12)
	maximum = 0.0536 (at node 10)
Injected flit rate average = 0.04685
	minimum = 0.03 (at node 3)
	maximum = 0.0536 (at node 7)
Accepted flit rate average= 0.04685
	minimum = 0.0296 (at node 12)
	maximum = 0.0536 (at node 10)
Injected packet length average = 1
Accepted packet length average = 1
Total in-flight flits = 40 (40 measured)
latency change    = 0.0380697
throughput change = 0.00146745
Class 0:
Packet latency average = 97.5254
	minimum = 7
	maximum = 1641
Network latency average = 44.8432
	minimum = 7
	maximum = 523
Slowest packet = 30572
Flit latency average = 46.5646
	minimum = 7
	maximum = 523
Slowest flit = 32274
Fragmentation average = 0
	minimum = 0
	maximum = 0
Injected packet rate average = 0.0467292
	minimum = 0.029 (at node 3)
	maximum = 0.054 (at node 15)
Accepted packet rate average = 0.0467917
	minimum = 0.029 (at node 12)
	maximum = 0.054 (at node 15)
Injected flit rate average = 0.0467292
	minimum = 0.029 (at node 3)
	maximum = 0.054 (at node 15)
Accepted flit rate average= 0.0467917
	minimum = 0.029 (at node 12)
	maximum = 0.054 (at node 15)
Injected packet length average = 1
Accepted packet length average = 1
Total in-flight flits = 38 (38 measured)
latency change    = 0.0574386
throughput change = 0.00124666
Class 0:
Packet latency average = 106.742
	minimum = 7
	maximum = 1859
Network latency average = 46.0199
	minimum = 7
	maximum = 523
Slowest packet = 30572
Flit latency average = 47.4843
	minimum = 7
	maximum = 523
Slowest flit = 32274
Fragmentation average = 0
	minimum = 0
	maximum = 0
Injected packet rate average = 0.0465893
	minimum = 0.0291429 (at node 3)
	maximum = 0.0537143 (at node 9)
Accepted packet rate average = 0.0465714
	minimum = 0.0282857 (at node 12)
	maximum = 0.0534286 (at node 6)
Injected flit rate average = 0.0465893
	minimum = 0.0291429 (at node 3)
	maximum = 0.0537143 (at node 9)
Accepted flit rate average= 0.0465714
	minimum = 0.0282857 (at node 12)
	maximum = 0.0534286 (at node 6)
Injected packet length average = 1
Accepted packet length average = 1
Total in-flight flits = 42 (42 measured)
latency change    = 0.0863466
throughput change = 0.00472904
Draining all recorded packets ...
Class 0:
Remaining flits: 33736 33781 33782 33806 33812 33814 33826 33833 33864 33867 [...] (36 flits)
Measured flits: 33736 33781 33782 33806 33812 33814 33826 33833 33864 33867 [...] (17 flits)
Class 0:
Remaining flits: 34437 34513 34523 34556 34570 34598 34607 34613 34614 34628 [...] (33 flits)
Measured flits: 34437 34556 34598 34614 34629 34634 34643 34653 34696 (9 flits)
Draining remaining packets ...
Time taken is 7861 cycles
Class 0:
Packet latency average = 29.1337
	minimum = 7
	maximum = 289
Network latency average = 28.8182
	minimum = 7
	maximum = 289
Slowest packet = 35441
Flit latency average = 28.8182
	minimum = 7
	maximum = 289
Slowest flit = 35441
Fragmentation average = 0
	minimum = 0
	maximum = 0
Injected packet rate average = 0.0505
	minimum = 0.034 (at node 3)
	maximum = 0.074 (at node 5)
Accepted packet rate average = 0.04675
	minimum = 0.024 (at node 12)
	maximum = 0.072 (at node 5)
Injected flit rate average = 0.0505
	minimum = 0.034 (at node 3)
	maximum = 0.074 (at node 5)
Accepted flit rate average= 0.04675
	minimum = 0.024 (at node 12)
	maximum = 0.072 (at node 5)
Injected packet length average = 1
Accepted packet length average = 1
Total in-flight flits = 31 (0 measured)
latency change    = 1
throughput change = 1
Class 0:
Packet latency average = 38.292
	minimum = 7
	maximum = 522
Network latency average = 34.3651
	minimum = 7
	maximum = 374
Slowest packet = 35441
Flit latency average = 34.3651
	minimum = 7
	maximum = 374
Slowest flit = 35652
Fragmentation average = 0
	minimum = 0
	maximum = 0
Injected packet rate average = 0.0503125
	minimum = 0.035 (at node 12)
	maximum = 0.069 (at node 0)
Accepted packet rate average = 0.0479375
	minimum = 0.028 (at node 3)
	maximum = 0.069 (at node 0)
Injected flit rate average = 0.0503125
	minimum = 0.035 (at node 12)
	maximum = 0.069 (at node 0)
Accepted flit rate average= 0.0479375
	minimum = 0.028 (at node 3)
	maximum = 0.069 (at node 0)
Injected packet length average = 1
Accepted packet length average = 1
Total in-flight flits = 40 (0 measured)
latency change    = 0.239171
throughput change = 0.0247718
Class 0:
Packet latency average = 64.3553
	minimum = 7
	maximum = 791
Network latency average = 49.297
	minimum = 7
	maximum = 382
Slowest packet = 35962
Flit latency average = 49.297
	minimum = 7
	maximum = 382
Slowest flit = 35754
Fragmentation average = 0
	minimum = 0
	maximum = 0
Injected packet rate average = 0.04925
	minimum = 0.026 (at node 12)
	maximum = 0.064 (at node 4)
Accepted packet rate average = 0.04925
	minimum = 0.024 (at node 3)
	maximum = 0.064 (at node 1)
Injected flit rate average = 0.04925
	minimum = 0.026 (at node 12)
	maximum = 0.064 (at node 4)
Accepted flit rate average= 0.04925
	minimum = 0.024 (at node 3)
	maximum = 0.064 (at node 1)
Injected packet length average = 1
Accepted packet length average = 1
Total in-flight flits = 41 (0 measured)
latency change    = 0.40499
throughput change = 0.0266497
Warmed up ...Time used is 1500 cycles
Class 0:
Packet latency average = 51.709
	minimum = 7
	maximum = 865
Network latency average = 36.5232
	minimum = 7
	maximum = 311
Slowest packet = 36500
Flit latency average = 49.8709
	minimum = 7
	maximum = 384
Slowest flit = 36342
Fragmentation average = 0
	minimum = 0
	maximum = 0
Injected packet rate average = 0.045875
	minimum = 0.024 (at node 12)
	maximum = 0.062 (at node 9)
Accepted packet rate average = 0.0455
	minimum = 0.024 (at node 3)
	maximum = 0.06 (at node 6)
Injected flit rate average = 0.045875
	minimum = 0.024 (at node 12)
	maximum = 0.062 (at node 9)
Accepted flit rate average= 0.0455
	minimum = 0.024 (at node 3)
	maximum = 0.06 (at node 6)
Injected packet length average = 1
Accepted packet length average = 1
Total in-flight flits = 45 (45 measured)
latency change    = 0.244568
throughput change = 0.0824176
Class 0:
Packet latency average = 75.3404
	minimum = 7
	maximum = 1232
Network latency average = 44.1624
	minimum = 7
	maximum = 476
Slowest packet = 36500
Flit latency average = 50.231
	minimum = 7
	maximum = 476
Slowest flit = 36794
Fragmentation average = 0
	minimum = 0
	maximum = 0
Injected packet rate average = 0.0471875
	minimum = 0.023 (at node 12)
	maximum = 0.063 (at node 9)
Accepted packet rate average = 0.0468125
	minimum = 0.024 (at node 3)
	maximum = 0.064 (at node 6)
Injected flit rate average = 0.0471875
	minimum = 0.023 (at node 12)
	maximum = 0.063 (at node 9)
Accepted flit rate average= 0.0468125
	minimum = 0.024 (at node 3)
	maximum = 0.064 (at node 6)
Injected packet length average = 1
Accepted packet length average = 1
Total in-flight flits = 48 (48 measured)
latency change    = 0.313662
throughput change = 0.0280374
Class 0:
Packet latency average = 95.2857
	minimum = 7
	maximum = 1581
Network latency average = 47.4093
	minimum = 7
	maximum = 476
Slowest packet = 36500
Flit latency average = 51.3036
	minimum = 7
	maximum = 476
Slowest flit = 36794
Fragmentation average = 0
	minimum = 0
	maximum = 0
Injected packet rate average = 0.047125
	minimum = 0.024 (at node 12)
	maximum = 0.0626667 (at node 7)
Accepted packet rate average = 0.0472083
	minimum = 0.0253333 (at node 3)
	maximum = 0.0613333 (at node 13)
Injected flit rate average = 0.047125
	minimum = 0.024 (at node 12)
	maximum = 0.0626667 (at node 7)
Accepted flit rate average= 0.0472083
	minimum = 0.0253333 (at node 3)
	maximum = 0.0613333 (at node 13)
Injected packet length average = 1
Accepted packet length average = 1
Total in-flight flits = 40 (40 measured)
latency change    = 0.209321
throughput change = 0.00838482
Class 0:
Packet latency average = 110.995
	minimum = 7
	maximum = 1810
Network latency average = 48.6521
	minimum = 7
	maximum = 476
Slowest packet = 36500
Flit latency average = 51.5404
	minimum = 7
	maximum = 476
Slowest flit = 36794
Fragmentation average = 0
	minimum = 0
	maximum = 0
Injected packet rate average = 0.0471562
	minimum = 0.023 (at node 12)
	maximum = 0.061 (at node 7)
Accepted packet rate average = 0.0471875
	minimum = 0.024 (at node 3)
	maximum = 0.0605 (at node 13)
Injected flit rate average = 0.0471562
	minimum = 0.023 (at node 12)
	maximum = 0.061 (at node 7)
Accepted flit rate average= 0.0471875
	minimum = 0.024 (at node 3)
	maximum = 0.0605 (at node 13)
Injected packet length average = 1
Accepted packet length average = 1
Total in-flight flits = 40 (40 measured)
latency change    = 0.141528
throughput change = 0.000441501
Class 0:
Packet latency average = 128.772
	minimum = 7
	maximum = 2097
Network latency average = 48.7152
	minimum = 7
	maximum = 476
Slowest packet = 36500
Flit latency average = 51.0068
	minimum = 7
	maximum = 476
Slowest flit = 36794
Fragmentation average = 0
	minimum = 0
	maximum = 0
Injected packet rate average = 0.04745
	minimum = 0.024 (at node 12)
	maximum = 0.056 (at node 7)
Accepted packet rate average = 0.04755
	minimum = 0.024 (at node 3)
	maximum = 0.056 (at node 13)
Injected flit rate average = 0.04745
	minimum = 0.024 (at node 12)
	maximum = 0.056 (at node 7)
Accepted flit rate average= 0.04755
	minimum = 0.024 (at node 3)
	maximum = 0.056 (at node 13)
Injected packet length average = 1
Accepted packet length average = 1
Total in-flight flits = 36 (36 measured)
latency change    = 0.138055
throughput change = 0.00762355
Class 0:
Packet latency average = 145.001
	minimum = 7
	maximum = 2330
Network latency average = 49.1225
	minimum = 7
	maximum = 476
Slowest packet = 36500
Flit latency average = 51.0294
	minimum = 7
	maximum = 476
Slowest flit = 36794
Fragmentation average = 0
	minimum = 0
	maximum = 0
Injected packet rate average = 0.0474583
	minimum = 0.024 (at node 12)
	maximum = 0.0546667 (at node 6)
Accepted packet rate average = 0.0474375
	minimum = 0.0246667 (at node 3)
	maximum = 0.0546667 (at node 9)
Injected flit rate average = 0.0474583
	minimum = 0.024 (at node 12)
	maximum = 0.0546667 (at node 6)
Accepted flit rate average= 0.0474375
	minimum = 0.0246667 (at node 3)
	maximum = 0.0546667 (at node 9)
Injected packet length average = 1
Accepted packet length average = 1
Total in-flight flits = 42 (42 measured)
latency change    = 0.111922
throughput change = 0.00237154
Class 0:
Packet latency average = 157.346
	minimum = 7
	maximum = 2502
Network latency average = 49.5712
	minimum = 7
	maximum = 476
Slowest packet = 36500
Flit latency average = 51.2039
	minimum = 7
	maximum = 476
Slowest flit = 36794
Fragmentation average = 0
	minimum = 0
	maximum = 0
Injected packet rate average = 0.0472321
	minimum = 0.024 (at node 12)
	maximum = 0.0554286 (at node 6)
Accepted packet rate average = 0.0472857
	minimum = 0.0245714 (at node 3)
	maximum = 0.0551429 (at node 2)
Injected flit rate average = 0.0472321
	minimum = 0.024 (at node 12)
	maximum = 0.0554286 (at node 6)
Accepted flit rate average= 0.0472857
	minimum = 0.0245714 (at node 3)
	maximum = 0.0551429 (at node 2)
Injected packet length average = 1
Accepted packet length average = 1
Total in-flight flits = 39 (39 measured)
latency change    = 0.0784583
throughput change = 0.00320997
Draining all recorded packets ...
Class 0:
Remaining flits: 39615 39623 39666 39681 39720 39746 39776 39793 39798 39802 [...] (43 flits)
Measured flits: 39615 39623 39666 39681 39720 39746 39798 39802 39816 39819 [...] (16 flits)
Class 0:
Remaining flits: 40334 40393 40430 40481 40500 40505 40513 40524 40527 40545 [...] (40 flits)
Measured flits: 40334 40393 40430 40481 40500 40513 40524 40549 40559 40584 [...] (15 flits)
Class 0:
Remaining flits: 41057 41102 41112 41194 41205 41255 41258 41266 41287 41306 [...] (36 flits)
Measured flits: 41057 41102 41112 41194 41205 41255 41258 41266 41306 41310 [...] (17 flits)
Class 0:
Remaining flits: 41837 41912 41915 41924 41970 42016 42017 42020 42027 42041 [...] (45 flits)
Measured flits: 41837 41912 41915 41924 41970 42017 42027 42068 42080 42123 [...] (11 flits)
Draining remaining packets ...
Time taken is 9950 cycles
Class 0:
Packet latency average = 25.0901
	minimum = 7
	maximum = 116
Network latency average = 25.0901
	minimum = 7
	maximum = 116
Slowest packet = 42842
Flit latency average = 25.0901
	minimum = 7
	maximum = 116
Slowest flit = 42842
Fragmentation average = 0
	minimum = 0
	maximum = 0
Injected packet rate average = 0.04725
	minimum = 0.026 (at node 2)
	maximum = 0.062 (at node 1)
Accepted packet rate average = 0.044375
	minimum = 0.024 (at node 8)
	maximum = 0.062 (at node 4)
Injected flit rate average = 0.04725
	minimum = 0.026 (at node 2)
	maximum = 0.062 (at node 1)
Accepted flit rate average= 0.044375
	minimum = 0.024 (at node 8)
	maximum = 0.062 (at node 4)
Injected packet length average = 1
Accepted packet length average = 1
Total in-flight flits = 23 (0 measured)
latency change    = 1
throughput change = 1
Class 0:
Packet latency average = 30.3989
	minimum = 7
	maximum = 396
Network latency average = 30.0729
	minimum = 7
	maximum = 388
Slowest packet = 43190
Flit latency average = 30.0729
	minimum = 7
	maximum = 388
Slowest flit = 43190
Fragmentation average = 0
	minimum = 0
	maximum = 0
Injected packet rate average = 0.0475
	minimum = 0.033 (at node 12)
	maximum = 0.055 (at node 6)
Accepted packet rate average = 0.0454375
	minimum = 0.027 (at node 3)
	maximum = 0.055 (at node 9)
Injected flit rate average = 0.0475
	minimum = 0.033 (at node 12)
	maximum = 0.055 (at node 6)
Accepted flit rate average= 0.0454375
	minimum = 0.027 (at node 3)
	maximum = 0.055 (at node 9)
Injected packet length average = 1
Accepted packet length average = 1
Total in-flight flits = 34 (0 measured)
latency change    = 0.174637
throughput change = 0.0233838
Class 0:
Packet latency average = 47.7677
	minimum = 7
	maximum = 451
Network latency average = 40.1212
	minimum = 7
	maximum = 411
Slowest packet = 43219
Flit latency average = 40.1212
	minimum = 7
	maximum = 411
Slowest flit = 43219
Fragmentation average = 0
	minimum = 0
	maximum = 0
Injected packet rate average = 0.04975
	minimum = 0.036 (at node 3)
	maximum = 0.07 (at node 15)
Accepted packet rate average = 0.0495
	minimum = 0.034 (at node 12)
	maximum = 0.072 (at node 15)
Injected flit rate average = 0.04975
	minimum = 0.036 (at node 3)
	maximum = 0.07 (at node 15)
Accepted flit rate average= 0.0495
	minimum = 0.034 (at node 12)
	maximum = 0.072 (at node 15)
Injected packet length average = 1
Accepted packet length average = 1
Total in-flight flits = 37 (0 measured)
latency change    = 0.363609
throughput change = 0.0820707
Warmed up ...Time used is 1500 cycles
Class 0:
Packet latency average = 51.2927
	minimum = 7
	maximum = 580
Network latency average = 34.247
	minimum = 7
	maximum = 294
Slowest packet = 43901
Flit latency average = 46.8795
	minimum = 7
	maximum = 353
Slowest flit = 43672
Fragmentation average = 0
	minimum = 0
	maximum = 0
Injected packet rate average = 0.045625
	minimum = 0.022 (at node 11)
	maximum = 0.064 (at node 0)
Accepted packet rate average = 0.045625
	minimum = 0.026 (at node 14)
	maximum = 0.064 (at node 0)
Injected flit rate average = 0.045625
	minimum = 0.022 (at node 11)
	maximum = 0.064 (at node 0)
Accepted flit rate average= 0.045625
	minimum = 0.026 (at node 14)
	maximum = 0.064 (at node 0)
Injected packet length average = 1
Accepted packet length average = 1
Total in-flight flits = 38 (38 measured)
latency change    = 0.0687234
throughput change = 0.0849315
Class 0:
Packet latency average = 71.0532
	minimum = 7
	maximum = 876
Network latency average = 42.1971
	minimum = 7
	maximum = 335
Slowest packet = 43901
Flit latency average = 48.0943
	minimum = 7
	maximum = 353
Slowest flit = 43672
Fragmentation average = 0
	minimum = 0
	maximum = 0
Injected packet rate average = 0.0455
	minimum = 0.027 (at node 3)
	maximum = 0.064 (at node 0)
Accepted packet rate average = 0.04575
	minimum = 0.027 (at node 12)
	maximum = 0.063 (at node 0)
Injected flit rate average = 0.0455
	minimum = 0.027 (at node 3)
	maximum = 0.064 (at node 0)
Accepted flit rate average= 0.04575
	minimum = 0.027 (at node 12)
	maximum = 0.063 (at node 0)
Injected packet length average = 1
Accepted packet length average = 1
Total in-flight flits = 35 (35 measured)
latency change    = 0.278109
throughput change = 0.00273224
Class 0:
Packet latency average = 83.9745
	minimum = 7
	maximum = 1135
Network latency average = 45.7427
	minimum = 7
	maximum = 468
Slowest packet = 43901
Flit latency average = 49.5686
	minimum = 7
	maximum = 468
Slowest flit = 44494
Fragmentation average = 0
	minimum = 0
	maximum = 0
Injected packet rate average = 0.0455833
	minimum = 0.0273333 (at node 3)
	maximum = 0.0646667 (at node 0)
Accepted packet rate average = 0.0455833
	minimum = 0.0266667 (at node 12)
	maximum = 0.0646667 (at node 0)
Injected flit rate average = 0.0455833
	minimum = 0.0273333 (at node 3)
	maximum = 0.0646667 (at node 0)
Accepted flit rate average= 0.0455833
	minimum = 0.0266667 (at node 12)
	maximum = 0.0646667 (at node 0)
Injected packet length average = 1
Accepted packet length average = 1
Total in-flight flits = 38 (38 measured)
latency change    = 0.153871
throughput change = 0.00365631
Class 0:
Packet latency average = 95.1534
	minimum = 7
	maximum = 1485
Network latency average = 45.9791
	minimum = 7
	maximum = 468
Slowest packet = 43901
Flit latency average = 48.8185
	minimum = 7
	maximum = 468
Slowest flit = 44494
Fragmentation average = 0
	minimum = 0
	maximum = 0
Injected packet rate average = 0.0459375
	minimum = 0.0265 (at node 3)
	maximum = 0.06 (at node 0)
Accepted packet rate average = 0.0459688
	minimum = 0.0265 (at node 12)
	maximum = 0.06 (at node 0)
Injected flit rate average = 0.0459375
	minimum = 0.0265 (at node 3)
	maximum = 0.06 (at node 0)
Accepted flit rate average= 0.0459688
	minimum = 0.0265 (at node 12)
	maximum = 0.06 (at node 0)
Injected packet length average = 1
Accepted packet length average = 1
Total in-flight flits = 38 (38 measured)
latency change    = 0.117484
throughput change = 0.00838432
Class 0:
Packet latency average = 104.893
	minimum = 7
	maximum = 1719
Network latency average = 46.3466
	minimum = 7
	maximum = 468
Slowest packet = 43901
Flit latency average = 48.5669
	minimum = 7
	maximum = 468
Slowest flit = 44494
Fragmentation average = 0
	minimum = 0
	maximum = 0
Injected packet rate average = 0.046875
	minimum = 0.0268 (at node 3)
	maximum = 0.0612 (at node 0)
Accepted packet rate average = 0.046875
	minimum = 0.0264 (at node 12)
	maximum = 0.0612 (at node 0)
Injected flit rate average = 0.046875
	minimum = 0.0268 (at node 3)
	maximum = 0.0612 (at node 0)
Accepted flit rate average= 0.046875
	minimum = 0.0264 (at node 12)
	maximum = 0.0612 (at node 0)
Injected packet length average = 1
Accepted packet length average = 1
Total in-flight flits = 39 (39 measured)
latency change    = 0.092851
throughput change = 0.0193333
Class 0:
Packet latency average = 115.956
	minimum = 7
	maximum = 1883
Network latency average = 47.0659
	minimum = 7
	maximum = 468
Slowest packet = 43901
Flit latency average = 48.9011
	minimum = 7
	maximum = 468
Slowest flit = 44494
Fragmentation average = 0
	minimum = 0
	maximum = 0
Injected packet rate average = 0.0470208
	minimum = 0.0263333 (at node 3)
	maximum = 0.059 (at node 0)
Accepted packet rate average = 0.0469583
	minimum = 0.0263333 (at node 12)
	maximum = 0.059 (at node 0)
Injected flit rate average = 0.0470208
	minimum = 0.0263333 (at node 3)
	maximum = 0.059 (at node 0)
Accepted flit rate average= 0.0469583
	minimum = 0.0263333 (at node 12)
	maximum = 0.059 (at node 0)
Injected packet length average = 1
Accepted packet length average = 1
Total in-flight flits = 41 (41 measured)
latency change    = 0.0954069
throughput change = 0.00177462
Class 0:
Packet latency average = 125.31
	minimum = 7
	maximum = 2116
Network latency average = 47.0084
	minimum = 7
	maximum = 468
Slowest packet = 43901
Flit latency average = 48.5631
	minimum = 7
	maximum = 468
Slowest flit = 44494
Fragmentation average = 0
	minimum = 0
	maximum = 0
Injected packet rate average = 0.0475893
	minimum = 0.0271429 (at node 3)
	maximum = 0.0591429 (at node 0)
Accepted packet rate average = 0.0475357
	minimum = 0.0271429 (at node 12)
	maximum = 0.0588571 (at node 0)
Injected flit rate average = 0.0475893
	minimum = 0.0271429 (at node 3)
	maximum = 0.0591429 (at node 0)
Accepted flit rate average= 0.0475357
	minimum = 0.0271429 (at node 12)
	maximum = 0.0588571 (at node 0)
Injected packet length average = 1
Accepted packet length average = 1
Total in-flight flits = 41 (41 measured)
latency change    = 0.0746492
throughput change = 0.0121463
Draining all recorded packets ...
Class 0:
Remaining flits: 47051 47084 47087 47151 47206 47210 47218 47228 47239 47245 [...] (46 flits)
Measured flits: 47051 47084 47087 47151 47206 47210 47218 47228 47245 47257 [...] (16 flits)
Class 0:
Remaining flits: 47846 47875 47876 47924 47942 47971 47979 48033 48036 48055 [...] (41 flits)
Measured flits: 47846 47875 47876 47924 47942 47971 47979 48033 48055 48058 [...] (16 flits)
Class 0:
Remaining flits: 48562 48694 48696 48702 48762 48778 48806 48814 48824 48830 [...] (35 flits)
Measured flits: 48562 48694 48696 48702 48762 48778 48806 48814 48830 48842 [...] (18 flits)
Draining remaining packets ...
Time taken is 9101 cycles
Class 0:
Packet latency average = 35.0635
	minimum = 7
	maximum = 264
Network latency average = 34.3978
	minimum = 7
	maximum = 264
Slowest packet = 49759
Flit latency average = 34.3978
	minimum = 7
	maximum = 264
Slowest flit = 49759
Fragmentation average = 0
	minimum = 0
	maximum = 0
Injected packet rate average = 0.050125
	minimum = 0.038 (at node 2)
	maximum = 0.062 (at node 9)
Accepted packet rate average = 0.04525
	minimum = 0.026 (at node 3)
	maximum = 0.058 (at node 6)
Injected flit rate average = 0.050125
	minimum = 0.038 (at node 2)
	maximum = 0.062 (at node 9)
Accepted flit rate average= 0.04525
	minimum = 0.026 (at node 3)
	maximum = 0.058 (at node 6)
Injected packet length average = 1
Accepted packet length average = 1
Total in-flight flits = 42 (0 measured)
latency change    = 1
throughput change = 1
Class 0:
Packet latency average = 48.5989
	minimum = 7
	maximum = 535
Network latency average = 41.4225
	minimum = 7
	maximum = 366
Slowest packet = 49762
Flit latency average = 41.4225
	minimum = 7
	maximum = 366
Slowest flit = 49762
Fragmentation average = 0
	minimum = 0
	maximum = 0
Injected packet rate average = 0.045875
	minimum = 0.033 (at node 12)
	maximum = 0.056 (at node 9)
Accepted packet rate average = 0.0439375
	minimum = 0.026 (at node 3)
	maximum = 0.056 (at node 6)
Injected flit rate average = 0.045875
	minimum = 0.033 (at node 12)
	maximum = 0.056 (at node 9)
Accepted flit rate average= 0.0439375
	minimum = 0.026 (at node 3)
	maximum = 0.056 (at node 6)
Injected packet length average = 1
Accepted packet length average = 1
Total in-flight flits = 33 (0 measured)
latency change    = 0.278511
throughput change = 0.029872
Class 0:
Packet latency average = 66.8704
	minimum = 7
	maximum = 748
Network latency average = 44.8333
	minimum = 7
	maximum = 360
Slowest packet = 50258
Flit latency average = 44.8333
	minimum = 7
	maximum = 360
Slowest flit = 50434
Fragmentation average = 0
	minimum = 0
	maximum = 0
Injected packet rate average = 0.048375
	minimum = 0.026 (at node 12)
	maximum = 0.064 (at node 15)
Accepted packet rate average = 0.04725
	minimum = 0.026 (at node 3)
	maximum = 0.066 (at node 15)
Injected flit rate average = 0.048375
	minimum = 0.026 (at node 12)
	maximum = 0.064 (at node 15)
Accepted flit rate average= 0.04725
	minimum = 0.026 (at node 3)
	maximum = 0.066 (at node 15)
Injected packet length average = 1
Accepted packet length average = 1
Total in-flight flits = 43 (0 measured)
latency change    = 0.273238
throughput change = 0.0701058
Warmed up ...Time used is 1500 cycles
Class 0:
Packet latency average = 52.2232
	minimum = 7
	maximum = 870
Network latency average = 37.1346
	minimum = 7
	maximum = 349
Slowest packet = 50771
Flit latency average = 51.9595
	minimum = 7
	maximum = 441
Slowest flit = 50540
Fragmentation average = 0
	minimum = 0
	maximum = 0
Injected packet rate average = 0.0455
	minimum = 0.024 (at node 12)
	maximum = 0.066 (at node 1)
Accepted packet rate average = 0.04625
	minimum = 0.024 (at node 12)
	maximum = 0.064 (at node 4)
Injected flit rate average = 0.0455
	minimum = 0.024 (at node 12)
	maximum = 0.066 (at node 1)
Accepted flit rate average= 0.04625
	minimum = 0.024 (at node 12)
	maximum = 0.064 (at node 4)
Injected packet length average = 1
Accepted packet length average = 1
Total in-flight flits = 38 (38 measured)
latency change    = 0.280471
throughput change = 0.0216216
Class 0:
Packet latency average = 74.276
	minimum = 7
	maximum = 1040
Network latency average = 44.4335
	minimum = 7
	maximum = 365
Slowest packet = 50771
Flit latency average = 51.4694
	minimum = 7
	maximum = 441
Slowest flit = 50540
Fragmentation average = 0
	minimum = 0
	maximum = 0
Injected packet rate average = 0.045625
	minimum = 0.024 (at node 12)
	maximum = 0.059 (at node 1)
Accepted packet rate average = 0.0459375
	minimum = 0.025 (at node 3)
	maximum = 0.059 (at node 4)
Injected flit rate average = 0.045625
	minimum = 0.024 (at node 12)
	maximum = 0.059 (at node 1)
Accepted flit rate average= 0.0459375
	minimum = 0.025 (at node 3)
	maximum = 0.059 (at node 4)
Injected packet length average = 1
Accepted packet length average = 1
Total in-flight flits = 38 (38 measured)
latency change    = 0.296903
throughput change = 0.00680272
Class 0:
Packet latency average = 90.6965
	minimum = 7
	maximum = 1286
Network latency average = 47.6715
	minimum = 7
	maximum = 427
Slowest packet = 50771
Flit latency average = 52.3265
	minimum = 7
	maximum = 441
Slowest flit = 50540
Fragmentation average = 0
	minimum = 0
	maximum = 0
Injected packet rate average = 0.0453333
	minimum = 0.0253333 (at node 12)
	maximum = 0.056 (at node 1)
Accepted packet rate average = 0.0450417
	minimum = 0.0253333 (at node 3)
	maximum = 0.056 (at node 2)
Injected flit rate average = 0.0453333
	minimum = 0.0253333 (at node 12)
	maximum = 0.056 (at node 1)
Accepted flit rate average= 0.0450417
	minimum = 0.0253333 (at node 3)
	maximum = 0.056 (at node 2)
Injected packet length average = 1
Accepted packet length average = 1
Total in-flight flits = 52 (52 measured)
latency change    = 0.181049
throughput change = 0.019889
Class 0:
Packet latency average = 101.739
	minimum = 7
	maximum = 1571
Network latency average = 50.1093
	minimum = 7
	maximum = 507
Slowest packet = 50771
Flit latency average = 53.4612
	minimum = 7
	maximum = 507
Slowest flit = 51726
Fragmentation average = 0
	minimum = 0
	maximum = 0
Injected packet rate average = 0.0461563
	minimum = 0.0255 (at node 3)
	maximum = 0.0565 (at node 1)
Accepted packet rate average = 0.0459375
	minimum = 0.0245 (at node 12)
	maximum = 0.056 (at node 4)
Injected flit rate average = 0.0461563
	minimum = 0.0255 (at node 3)
	maximum = 0.0565 (at node 1)
Accepted flit rate average= 0.0459375
	minimum = 0.0245 (at node 12)
	maximum = 0.056 (at node 4)
Injected packet length average = 1
Accepted packet length average = 1
Total in-flight flits = 51 (51 measured)
latency change    = 0.108534
throughput change = 0.0195011
Class 0:
Packet latency average = 110.302
	minimum = 7
	maximum = 1875
Network latency average = 51.2739
	minimum = 7
	maximum = 507
Slowest packet = 50771
Flit latency average = 53.942
	minimum = 7
	maximum = 507
Slowest flit = 51726
Fragmentation average = 0
	minimum = 0
	maximum = 0
Injected packet rate average = 0.04565
	minimum = 0.0248 (at node 12)
	maximum = 0.0568 (at node 8)
Accepted packet rate average = 0.0457
	minimum = 0.0244 (at node 12)
	maximum = 0.056 (at node 2)
Injected flit rate average = 0.04565
	minimum = 0.0248 (at node 12)
	maximum = 0.0568 (at node 8)
Accepted flit rate average= 0.0457
	minimum = 0.0244 (at node 12)
	maximum = 0.056 (at node 2)
Injected packet length average = 1
Accepted packet length average = 1
Total in-flight flits = 42 (42 measured)
latency change    = 0.0776355
throughput change = 0.00519694
Class 0:
Packet latency average = 124.247
	minimum = 7
	maximum = 2117
Network latency average = 51.1583
	minimum = 7
	maximum = 507
Slowest packet = 50771
Flit latency average = 53.3734
	minimum = 7
	maximum = 507
Slowest flit = 51726
Fragmentation average = 0
	minimum = 0
	maximum = 0
Injected packet rate average = 0.0458333
	minimum = 0.0246667 (at node 12)
	maximum = 0.056 (at node 1)
Accepted packet rate average = 0.0459167
	minimum = 0.025 (at node 3)
	maximum = 0.0556667 (at node 4)
Injected flit rate average = 0.0458333
	minimum = 0.0246667 (at node 12)
	maximum = 0.056 (at node 1)
Accepted flit rate average= 0.0459167
	minimum = 0.025 (at node 3)
	maximum = 0.0556667 (at node 4)
Injected packet length average = 1
Accepted packet length average = 1
Total in-flight flits = 39 (39 measured)
latency change    = 0.112237
throughput change = 0.00471869
Class 0:
Packet latency average = 135.335
	minimum = 7
	maximum = 2423
Network latency average = 50.598
	minimum = 7
	maximum = 507
Slowest packet = 50771
Flit latency average = 52.4959
	minimum = 7
	maximum = 507
Slowest flit = 51726
Fragmentation average = 0
	minimum = 0
	maximum = 0
Injected packet rate average = 0.0460714
	minimum = 0.0245714 (at node 12)
	maximum = 0.056 (at node 8)
Accepted packet rate average = 0.0461607
	minimum = 0.0242857 (at node 3)
	maximum = 0.0565714 (at node 2)
Injected flit rate average = 0.0460714
	minimum = 0.0245714 (at node 12)
	maximum = 0.056 (at node 8)
Accepted flit rate average= 0.0461607
	minimum = 0.0242857 (at node 3)
	maximum = 0.0565714 (at node 2)
Injected packet length average = 1
Accepted packet length average = 1
Total in-flight flits = 39 (39 measured)
latency change    = 0.0819277
throughput change = 0.00528691
Draining all recorded packets ...
Class 0:
Remaining flits: 53813 53863 53898 53950 53976 53977 53982 54003 54008 54012 [...] (37 flits)
Measured flits: 53813 53863 53898 53950 53976 53977 53982 54003 54012 54015 [...] (17 flits)
Class 0:
Remaining flits: 54487 54589 54618 54620 54650 54672 54695 54696 54704 54731 [...] (42 flits)
Measured flits: 54618 54672 54731 54782 54790 54823 54834 (7 flits)
Class 0:
Remaining flits: 55303 55307 55331 55340 55364 55411 55425 55459 55469 55475 [...] (40 flits)
Measured flits: 55307 55364 55425 55475 55486 55536 55545 (7 flits)
Class 0:
Remaining flits: 56062 56099 56115 56127 56165 56166 56170 56177 56215 56219 [...] (47 flits)
Measured flits: 56062 56127 56166 56219 56229 56276 56287 (7 flits)
Draining remaining packets ...
Time taken is 9965 cycles
Class 0:
Packet latency average = 32.0592
	minimum = 7
	maximum = 193
Network latency average = 31.716
	minimum = 7
	maximum = 193
Slowest packet = 57111
Flit latency average = 31.716
	minimum = 7
	maximum = 193
Slowest flit = 57111
Fragmentation average = 0
	minimum = 0
	maximum = 0
Injected packet rate average = 0.04725
	minimum = 0.032 (at node 6)
	maximum = 0.06 (at node 0)
Accepted packet rate average = 0.04225
	minimum = 0.03 (at node 3)
	maximum = 0.06 (at node 0)
Injected flit rate average = 0.04725
	minimum = 0.032 (at node 6)
	maximum = 0.06 (at node 0)
Accepted flit rate average= 0.04225
	minimum = 0.03 (at node 3)
	maximum = 0.06 (at node 0)
Injected packet length average = 1
Accepted packet length average = 1
Total in-flight flits = 44 (0 measured)
latency change    = 1
throughput change = 1
Class 0:
Packet latency average = 47.0493
	minimum = 7
	maximum = 467
Network latency average = 40.7366
	minimum = 7
	maximum = 358
Slowest packet = 57198
Flit latency average = 40.7366
	minimum = 7
	maximum = 358
Slowest flit = 57198
Fragmentation average = 0
	minimum = 0
	maximum = 0
Injected packet rate average = 0.0466875
	minimum = 0.035 (at node 12)
	maximum = 0.057 (at node 0)
Accepted packet rate average = 0.044375
	minimum = 0.029 (at node 3)
	maximum = 0.057 (at node 0)
Injected flit rate average = 0.0466875
	minimum = 0.035 (at node 12)
	maximum = 0.057 (at node 0)
Accepted flit rate average= 0.044375
	minimum = 0.029 (at node 3)
	maximum = 0.057 (at node 0)
Injected packet length average = 1
Accepted packet length average = 1
Total in-flight flits = 41 (0 measured)
latency change    = 0.318605
throughput change = 0.0478873
Class 0:
Packet latency average = 67.8968
	minimum = 7
	maximum = 602
Network latency average = 48.1799
	minimum = 7
	maximum = 378
Slowest packet = 57602
Flit latency average = 48.1799
	minimum = 7
	maximum = 378
Slowest flit = 57695
Fragmentation average = 0
	minimum = 0
	maximum = 0
Injected packet rate average = 0.047375
	minimum = 0.022 (at node 3)
	maximum = 0.074 (at node 5)
Accepted packet rate average = 0.04725
	minimum = 0.022 (at node 12)
	maximum = 0.076 (at node 5)
Injected flit rate average = 0.047375
	minimum = 0.022 (at node 3)
	maximum = 0.074 (at node 5)
Accepted flit rate average= 0.04725
	minimum = 0.022 (at node 12)
	maximum = 0.076 (at node 5)
Injected packet length average = 1
Accepted packet length average = 1
Total in-flight flits = 42 (0 measured)
latency change    = 0.307047
throughput change = 0.0608466
Warmed up ...Time used is 1500 cycles
Class 0:
Packet latency average = 65.6848
	minimum = 7
	maximum = 867
Network latency average = 36.2727
	minimum = 7
	maximum = 325
Slowest packet = 58062
Flit latency average = 48.9812
	minimum = 7
	maximum = 361
Slowest flit = 57941
Fragmentation average = 0
	minimum = 0
	maximum = 0
Injected packet rate average = 0.046625
	minimum = 0.024 (at node 12)
	maximum = 0.058 (at node 2)
Accepted packet rate average = 0.0465
	minimum = 0.026 (at node 3)
	maximum = 0.06 (at node 8)
Injected flit rate average = 0.046625
	minimum = 0.024 (at node 12)
	maximum = 0.058 (at node 2)
Accepted flit rate average= 0.0465
	minimum = 0.026 (at node 3)
	maximum = 0.06 (at node 8)
Injected packet length average = 1
Accepted packet length average = 1
Total in-flight flits = 43 (43 measured)
latency change    = 0.0336756
throughput change = 0.016129
Class 0:
Packet latency average = 88.4802
	minimum = 7
	maximum = 1033
Network latency average = 42.3432
	minimum = 7
	maximum = 349
Slowest packet = 58062
Flit latency average = 48.3067
	minimum = 7
	maximum = 361
Slowest flit = 57941
Fragmentation average = 0
	minimum = 0
	maximum = 0
Injected packet rate average = 0.0465
	minimum = 0.026 (at node 12)
	maximum = 0.056 (at node 1)
Accepted packet rate average = 0.046875
	minimum = 0.026 (at node 3)
	maximum = 0.057 (at node 4)
Injected flit rate average = 0.0465
	minimum = 0.026 (at node 12)
	maximum = 0.056 (at node 1)
Accepted flit rate average= 0.046875
	minimum = 0.026 (at node 3)
	maximum = 0.057 (at node 4)
Injected packet length average = 1
Accepted packet length average = 1
Total in-flight flits = 34 (34 measured)
latency change    = 0.257632
throughput change = 0.008
Class 0:
Packet latency average = 101.689
	minimum = 7
	maximum = 1285
Network latency average = 44.5082
	minimum = 7
	maximum = 356
Slowest packet = 58062
Flit latency average = 48.345
	minimum = 7
	maximum = 361
Slowest flit = 57941
Fragmentation average = 0
	minimum = 0
	maximum = 0
Injected packet rate average = 0.047625
	minimum = 0.0266667 (at node 12)
	maximum = 0.0586667 (at node 4)
[...]
Class 0:
Remaining flits: 276613 276654 276655 276699 276708 276734 276743 276758 276760 276780 [...] (47 flits)
Measured flits: 276613 276654 276655 276699 276708 276760 276780 276801 276810 276816 [...] (15 flits)
Class 0:
Remaining flits: 277365 277431 277432 277450 277485 277499 277527 277536 277541 277546 [...] (38 flits)
Measured flits: 277365 277431 277432 277450 277485 277499 277527 277546 277556 277578 [...] (16 flits)
Class 0:
Remaining flits: 278079 278148 278210 278265 278272 278284 278298 278304 278306 278314 [...] (43 flits)
Measured flits: 278079 278148 278210 278265 278272 278284 278298 278306 278314 278320 [...] (19 flits)
Class 0:
Remaining flits: 278810 278831 278879 278930 278936 278947 279008 279014 279021 279034 [...] (39 flits)
Measured flits: 278810 278879 278947 (3 flits)
Draining remaining packets ...
Time taken is 10346 cycles
Class 0:
Packet latency average = 36.4142
	minimum = 7
	maximum = 363
Network latency average = 35.4278
	minimum = 7
	maximum = 363
Slowest packet = 279336
Flit latency average = 35.4278
	minimum = 7
	maximum = 363
Slowest flit = 279336
Fragmentation average = 0
	minimum = 0
	maximum = 0
Injected packet rate average = 0.050125
	minimum = 0.036 (at node 12)
	maximum = 0.064 (at node 5)
Accepted packet rate average = 0.045875
	minimum = 0.024 (at node 3)
	maximum = 0.064 (at node 5)
Injected flit rate average = 0.050125
	minimum = 0.036 (at node 12)
	maximum = 0.064 (at node 5)
Accepted flit rate average= 0.045875
	minimum = 0.024 (at node 3)
	maximum = 0.064 (at node 5)
Injected packet length average = 1
Accepted packet length average = 1
Total in-flight flits = 36 (0 measured)
latency change    = 1
throughput change = 1
Class 0:
Packet latency average = 49.8463
	minimum = 7
	maximum = 616
Network latency average = 41.3975
	minimum = 7
	maximum = 377
Slowest packet = 279375
Flit latency average = 41.3975
	minimum = 7
	maximum = 377
Slowest flit = 279375
Fragmentation average = 0
	minimum = 0
	maximum = 0
Injected packet rate average = 0.0473125
	minimum = 0.032 (at node 12)
	maximum = 0.064 (at node 0)
Accepted packet rate average = 0.045125
	minimum = 0.024 (at node 3)
	maximum = 0.064 (at node 0)
Injected flit rate average = 0.0473125
	minimum = 0.032 (at node 12)
	maximum = 0.064 (at node 0)
Accepted flit rate average= 0.045125
	minimum = 0.024 (at node 3)
	maximum = 0.064 (at node 0)
Injected packet length average = 1
Accepted packet length average = 1
Total in-flight flits = 38 (0 measured)
latency change    = 0.26947
throughput change = 0.0166205
Class 0:
Packet latency average = 84.1889
	minimum = 7
	maximum = 894
Network latency average = 49.4667
	minimum = 7
	maximum = 364
Slowest packet = 279894
Flit latency average = 49.4667
	minimum = 7
	maximum = 364
Slowest flit = 280048
Fragmentation average = 0
	minimum = 0
	maximum = 0
Injected packet rate average = 0.044625
	minimum = 0.024 (at node 12)
	maximum = 0.058 (at node 14)
Accepted packet rate average = 0.045
	minimum = 0.028 (at node 3)
	maximum = 0.058 (at node 11)
Injected flit rate average = 0.044625
	minimum = 0.024 (at node 12)
	maximum = 0.058 (at node 14)
Accepted flit rate average= 0.045
	minimum = 0.028 (at node 3)
	maximum = 0.058 (at node 11)
Injected packet length average = 1
Accepted packet length average = 1
Total in-flight flits = 35 (0 measured)
latency change    = 0.407924
throughput change = 0.00277778
Warmed up ...Time used is 1500 cycles
Class 0:
Packet latency average = 54
	minimum = 7
	maximum = 1103
Network latency average = 35.4188
	minimum = 7
	maximum = 376
Slowest packet = 280377
Flit latency average = 46.8161
	minimum = 7
	maximum = 376
Slowest flit = 280375
Fragmentation average = 0
	minimum = 0
	maximum = 0
Injected packet rate average = 0.049125
	minimum = 0.028 (at node 12)
	maximum = 0.062 (at node 4)
Accepted packet rate average = 0.04825
	minimum = 0.024 (at node 3)
	maximum = 0.062 (at node 1)
Injected flit rate average = 0.049125
	minimum = 0.028 (at node 12)
	maximum = 0.062 (at node 4)
Accepted flit rate average= 0.04825
	minimum = 0.024 (at node 3)
	maximum = 0.062 (at node 1)
Injected packet length average = 1
Accepted packet length average = 1
Total in-flight flits = 42 (42 measured)
latency change    = 0.559053
throughput change = 0.0673575
Class 0:
Packet latency average = 76.8922
	minimum = 7
	maximum = 1334
Network latency average = 42.5458
	minimum = 7
	maximum = 381
Slowest packet = 280377
Flit latency average = 47.8867
	minimum = 7
	maximum = 381
Slowest flit = 280490
Fragmentation average = 0
	minimum = 0
	maximum = 0
Injected packet rate average = 0.0491875
	minimum = 0.026 (at node 12)
	maximum = 0.058 (at node 11)
Accepted packet rate average = 0.0485625
	minimum = 0.026 (at node 3)
	maximum = 0.059 (at node 11)
Injected flit rate average = 0.0491875
	minimum = 0.026 (at node 12)
	maximum = 0.058 (at node 11)
Accepted flit rate average= 0.0485625
	minimum = 0.026 (at node 3)
	maximum = 0.059 (at node 11)
Injected packet length average = 1
Accepted packet length average = 1
Total in-flight flits = 45 (45 measured)
latency change    = 0.297718
throughput change = 0.00643501
Class 0:
Packet latency average = 85.7125
	minimum = 7
	maximum = 1637
Network latency average = 44.0465
	minimum = 7
	maximum = 389
Slowest packet = 280377
Flit latency average = 47.5306
	minimum = 7
	maximum = 389
Slowest flit = 281186
Fragmentation average = 0
	minimum = 0
	maximum = 0
Injected packet rate average = 0.0490833
	minimum = 0.0253333 (at node 12)
	maximum = 0.062 (at node 4)
Accepted packet rate average = 0.049
	minimum = 0.0253333 (at node 3)
	maximum = 0.0626667 (at node 1)
Injected flit rate average = 0.0490833
	minimum = 0.0253333 (at node 12)
	maximum = 0.062 (at node 4)
Accepted flit rate average= 0.049
	minimum = 0.0253333 (at node 3)
	maximum = 0.0626667 (at node 1)
Injected packet length average = 1
Accepted packet length average = 1
Total in-flight flits = 36 (36 measured)
latency change    = 0.102906
throughput change = 0.00892857
Class 0:
Packet latency average = 102.364
	minimum = 7
	maximum = 1803
Network latency average = 45.5262
	minimum = 7
	maximum = 389
Slowest packet = 280377
Flit latency average = 48.1464
	minimum = 7
	maximum = 389
Slowest flit = 281186
Fragmentation average = 0
	minimum = 0
	maximum = 0
Injected packet rate average = 0.0483437
	minimum = 0.028 (at node 12)
	maximum = 0.059 (at node 4)
Accepted packet rate average = 0.04825
	minimum = 0.028 (at node 3)
	maximum = 0.0595 (at node 1)
Injected flit rate average = 0.0483437
	minimum = 0.028 (at node 12)
	maximum = 0.059 (at node 4)
Accepted flit rate average= 0.04825
	minimum = 0.028 (at node 3)
	maximum = 0.0595 (at node 1)
Injected packet length average = 1
Accepted packet length average = 1
Total in-flight flits = 38 (38 measured)
latency change    = 0.162673
throughput change = 0.015544
Class 0:
Packet latency average = 116.972
	minimum = 7
	maximum = 2051
Network latency average = 46.8138
	minimum = 7
	maximum = 403
Slowest packet = 280377
Flit latency average = 48.9149
	minimum = 7
	maximum = 403
Slowest flit = 281846
Fragmentation average = 0
	minimum = 0
	maximum = 0
Injected packet rate average = 0.04775
	minimum = 0.0288 (at node 3)
	maximum = 0.0572 (at node 8)
Accepted packet rate average = 0.0476
	minimum = 0.0296 (at node 3)
	maximum = 0.0564 (at node 2)
Injected flit rate average = 0.04775
	minimum = 0.0288 (at node 3)
	maximum = 0.0572 (at node 8)
Accepted flit rate average= 0.0476
	minimum = 0.0296 (at node 3)
	maximum = 0.0564 (at node 2)
Injected packet length average = 1
Accepted packet length average = 1
Total in-flight flits = 41 (41 measured)
latency change    = 0.124878
throughput change = 0.0136555
Class 0:
Packet latency average = 122.415
	minimum = 7
	maximum = 2100
Network latency average = 47.0071
	minimum = 7
	maximum = 403
Slowest packet = 280377
Flit latency average = 48.7642
	minimum = 7
	maximum = 403
Slowest flit = 281846
Fragmentation average = 0
	minimum = 0
	maximum = 0
Injected packet rate average = 0.0473333
	minimum = 0.028 (at node 3)
	maximum = 0.0553333 (at node 4)
Accepted packet rate average = 0.0473542
	minimum = 0.0286667 (at node 3)
	maximum = 0.0553333 (at node 1)
Injected flit rate average = 0.0473333
	minimum = 0.028 (at node 3)
	maximum = 0.0553333 (at node 4)
Accepted flit rate average= 0.0473542
	minimum = 0.0286667 (at node 3)
	maximum = 0.0553333 (at node 1)
Injected packet length average = 1
Accepted packet length average = 1
Total in-flight flits = 34 (34 measured)
latency change    = 0.0444637
throughput change = 0.00519138
Class 0:
Packet latency average = 136.659
	minimum = 7
	maximum = 2409
Network latency average = 47.5058
	minimum = 7
	maximum = 403
Slowest packet = 280377
Flit latency average = 49.0206
	minimum = 7
	maximum = 403
Slowest flit = 281846
Fragmentation average = 0
	minimum = 0
	maximum = 0
Injected packet rate average = 0.0470714
	minimum = 0.028 (at node 3)
	maximum = 0.0545714 (at node 8)
Accepted packet rate average = 0.046875
	minimum = 0.0282857 (at node 12)
	maximum = 0.054 (at node 11)
Injected flit rate average = 0.0470714
	minimum = 0.028 (at node 3)
	maximum = 0.0545714 (at node 8)
Accepted flit rate average= 0.046875
	minimum = 0.0282857 (at node 12)
	maximum = 0.054 (at node 11)
Injected packet length average = 1
Accepted packet length average = 1
Total in-flight flits = 47 (47 measured)
latency change    = 0.104233
throughput change = 0.0102222
Draining all recorded packets ...
Class 0:
Remaining flits: 283416 283426 283491 283515 283522 283542 283590 283591 283608 283611 [...] (43 flits)
Measured flits: 283416 283426 283491 283515 283522 283542 283591 283608 283611 283630 [...] (17 flits)
Class 0:
Remaining flits: 284104 284186 284251 284263 284330 284337 284359 284369 284379 284382 [...] (39 flits)
Measured flits: 284104 284186 284251 284263 284330 284337 284359 284379 284396 284409 [...] (16 flits)
Class 0:
Remaining flits: 284927 284964 285000 285020 285046 285065 285083 285089 285098 285099 [...] (39 flits)
Measured flits: 284927 284964 285000 285020 285046 285065 285083 285089 285099 285105 [...] (15 flits)
Class 0:
Remaining flits: 285574 285684 285700 285719 285752 285787 285793 285803 285833 285848 [...] (44 flits)
Measured flits: 285684 285752 285803 285848 (4 flits)
Draining remaining packets ...
Time taken is 9328 cycles
Class 0:
Packet latency average = 32.2156
	minimum = 7
	maximum = 253
Network latency average = 31.9704
	minimum = 7
	maximum = 240
Slowest packet = 286271
Flit latency average = 31.9704
	minimum = 7
	maximum = 240
Slowest flit = 286271
Fragmentation average = 0
	minimum = 0
	maximum = 0
Injected packet rate average = 0.051375
	minimum = 0.04 (at node 5)
	maximum = 0.068 (at node 10)
Accepted packet rate average = 0.046375
	minimum = 0.028 (at node 3)
	maximum = 0.066 (at node 10)
Injected flit rate average = 0.051375
	minimum = 0.04 (at node 5)
	maximum = 0.068 (at node 10)
Accepted flit rate average= 0.046375
	minimum = 0.028 (at node 3)
	maximum = 0.066 (at node 10)
Injected packet length average = 1
Accepted packet length average = 1
Total in-flight flits = 44 (0 measured)
latency change    = 1
throughput change = 1
Class 0:
Packet latency average = 49.293
	minimum = 7
	maximum = 624
Network latency average = 41.3425
	minimum = 7
	maximum = 417
Slowest packet = 286318
Flit latency average = 41.3425
	minimum = 7
	maximum = 417
Slowest flit = 286494
Fragmentation average = 0
	minimum = 0
	maximum = 0
Injected packet rate average = 0.0479375
	minimum = 0.032 (at node 12)
	maximum = 0.059 (at node 10)
Accepted packet rate average = 0.0454375
	minimum = 0.026 (at node 3)
	maximum = 0.059 (at node 10)
Injected flit rate average = 0.0479375
	minimum = 0.032 (at node 12)
	maximum = 0.059 (at node 10)
Accepted flit rate average= 0.0454375
	minimum = 0.026 (at node 3)
	maximum = 0.059 (at node 10)
Injected packet length average = 1
Accepted packet length average = 1
Total in-flight flits = 44 (0 measured)
latency change    = 0.346446
throughput change = 0.0206327
Class 0:
Packet latency average = 87.9692
	minimum = 7
	maximum = 833
Network latency average = 49.6436
	minimum = 7
	maximum = 438
Slowest packet = 286526
Flit latency average = 49.6436
	minimum = 7
	maximum = 438
Slowest flit = 286526
Fragmentation average = 0
	minimum = 0
	maximum = 0
Injected packet rate average = 0.048125
	minimum = 0.024 (at node 3)
	maximum = 0.074 (at node 1)
Accepted packet rate average = 0.04875
	minimum = 0.024 (at node 3)
	maximum = 0.072 (at node 4)
Injected flit rate average = 0.048125
	minimum = 0.024 (at node 3)
	maximum = 0.074 (at node 1)
Accepted flit rate average= 0.04875
	minimum = 0.024 (at node 3)
	maximum = 0.072 (at node 4)
Injected packet length average = 1
Accepted packet length average = 1
Total in-flight flits = 38 (0 measured)
latency change    = 0.439657
throughput change = 0.0679487
Warmed up ...Time used is 1500 cycles
Class 0:
Packet latency average = 70.5248
	minimum = 7
	maximum = 994
Network latency average = 33.1149
	minimum = 7
	maximum = 229
Slowest packet = 287233
Flit latency average = 48.1667
	minimum = 7
	maximum = 503
Slowest flit = 286967
Fragmentation average = 0
	minimum = 0
	maximum = 0
Injected packet rate average = 0.0455
	minimum = 0.026 (at node 3)
	maximum = 0.062 (at node 5)
Accepted packet rate average = 0.045
	minimum = 0.024 (at node 12)
	maximum = 0.06 (at node 8)
Injected flit rate average = 0.0455
	minimum = 0.026 (at node 3)
	maximum = 0.062 (at node 5)
Accepted flit rate average= 0.045
	minimum = 0.024 (at node 12)
	maximum = 0.06 (at node 8)
Injected packet length average = 1
Accepted packet length average = 1
Total in-flight flits = 43 (43 measured)
latency change    = 0.247351
throughput change = 0.0833333
Class 0:
Packet latency average = 97.0407
	minimum = 7
	maximum = 1304
Network latency average = 42.4826
	minimum = 7
	maximum = 481
Slowest packet = 287233
Flit latency average = 49.4559
	minimum = 7
	maximum = 503
Slowest flit = 286967
Fragmentation average = 0
	minimum = 0
	maximum = 0
Injected packet rate average = 0.0459375
	minimum = 0.024 (at node 3)
	maximum = 0.062 (at node 8)
Accepted packet rate average = 0.045375
	minimum = 0.025 (at node 12)
	maximum = 0.06 (at node 2)
Injected flit rate average = 0.0459375
	minimum = 0.024 (at node 3)
	maximum = 0.062 (at node 8)
Accepted flit rate average= 0.045375
	minimum = 0.025 (at node 12)
	maximum = 0.06 (at node 2)
Injected packet length average = 1
Accepted packet length average = 1
Total in-flight flits = 49 (49 measured)
latency change    = 0.273245
throughput change = 0.00826446
Class 0:
Packet latency average = 115.853
	minimum = 7
	maximum = 1681
Network latency average = 47.0828
	minimum = 7
	maximum = 489
Slowest packet = 287233
Flit latency average = 51.5712
	minimum = 7
	maximum = 503
Slowest flit = 286967
Fragmentation average = 0
	minimum = 0
	maximum = 0
Injected packet rate average = 0.0456667
	minimum = 0.0246667 (at node 3)
	maximum = 0.0606667 (at node 8)
Accepted packet rate average = 0.045375
	minimum = 0.0253333 (at node 12)
	maximum = 0.0593333 (at node 2)
Injected flit rate average = 0.0456667
	minimum = 0.0246667 (at node 3)
	maximum = 0.0606667 (at node 8)
Accepted flit rate average= 0.045375
	minimum = 0.0253333 (at node 12)
	maximum = 0.0593333 (at node 2)
Injected packet length average = 1
Accepted packet length average = 1
Total in-flight flits = 45 (45 measured)
latency change    = 0.162384
throughput change = 0
Class 0:
Packet latency average = 128.351
	minimum = 7
	maximum = 2010
Network latency average = 48.2117
	minimum = 7
	maximum = 489
Slowest packet = 287233
Flit latency average = 51.5301
	minimum = 7
	maximum = 503
Slowest flit = 286967
Fragmentation average = 0
	minimum = 0
	maximum = 0
Injected packet rate average = 0.045625
	minimum = 0.025 (at node 3)
	maximum = 0.059 (at node 8)
Accepted packet rate average = 0.045625
	minimum = 0.025 (at node 12)
	maximum = 0.0595 (at node 2)
Injected flit rate average = 0.045625
	minimum = 0.025 (at node 3)
	maximum = 0.059 (at node 8)
Accepted flit rate average= 0.045625
	minimum = 0.025 (at node 12)
	maximum = 0.0595 (at node 2)
Injected packet length average = 1
Accepted packet length average = 1
Total in-flight flits = 39 (39 measured)
latency change    = 0.0973693
throughput change = 0.00547945
Class 0:
Packet latency average = 142.386
	minimum = 7
	maximum = 2274
Network latency average = 48.9041
	minimum = 7
	maximum = 489
Slowest packet = 287233
Flit latency average = 51.5488
	minimum = 7
	maximum = 503
Slowest flit = 286967
Fragmentation average = 0
	minimum = 0
	maximum = 0
Injected packet rate average = 0.045675
	minimum = 0.0252 (at node 3)
	maximum = 0.0596 (at node 15)
Accepted packet rate average = 0.04555
	minimum = 0.0256 (at node 12)
	maximum = 0.0596 (at node 15)
Injected flit rate average = 0.045675
	minimum = 0.0252 (at node 3)
	maximum = 0.0596 (at node 15)
Accepted flit rate average= 0.04555
	minimum = 0.0256 (at node 12)
	maximum = 0.0596 (at node 15)
Injected packet length average = 1
Accepted packet length average = 1
Total in-flight flits = 44 (44 measured)
latency change    = 0.098572
throughput change = 0.00164654
Class 0:
Packet latency average = 154.304
	minimum = 7
	maximum = 2515
Network latency average = 48.9861
	minimum = 7
	maximum = 489
Slowest packet = 287233
Flit latency average = 51.179
	minimum = 7
	maximum = 503
Slowest flit = 286967
Fragmentation average = 0
	minimum = 0
	maximum = 0
Injected packet rate average = 0.0457708
	minimum = 0.0256667 (at node 3)
	maximum = 0.0606667 (at node 15)
Accepted packet rate average = 0.04575
	minimum = 0.0256667 (at node 12)
	maximum = 0.0606667 (at node 15)
Injected flit rate average = 0.0457708
	minimum = 0.0256667 (at node 3)
	maximum = 0.0606667 (at node 15)
Accepted flit rate average= 0.04575
	minimum = 0.0256667 (at node 12)
	maximum = 0.0606667 (at node 15)
Injected packet length average = 1
Accepted packet length average = 1
Total in-flight flits = 40 (40 measured)
latency change    = 0.0772385
throughput change = 0.00437158
Class 0:
Packet latency average = 163.781
	minimum = 7
	maximum = 2658
Network latency average = 49.3157
	minimum = 7
	maximum = 489
Slowest packet = 287233
Flit latency average = 51.1853
	minimum = 7
	maximum = 503
Slowest flit = 286967
Fragmentation average = 0
	minimum = 0
	maximum = 0
Injected packet rate average = 0.0458214
	minimum = 0.0251429 (at node 3)
	maximum = 0.0577143 (at node 15)
Accepted packet rate average = 0.045875
	minimum = 0.0251429 (at node 12)
	maximum = 0.0577143 (at node 15)
Injected flit rate average = 0.0458214
	minimum = 0.0251429 (at node 3)
	maximum = 0.0577143 (at node 15)
Accepted flit rate average= 0.045875
	minimum = 0.0251429 (at node 12)
	maximum = 0.0577143 (at node 15)
Injected packet length average = 1
Accepted packet length average = 1
Total in-flight flits = 36 (36 measured)
latency change    = 0.0578618
throughput change = 0.0027248
Draining all recorded packets ...
Class 0:
Remaining flits: 290184 290242 290289 290302 290317 290323 290355 290370 290397 290401 [...] (45 flits)
Measured flits: 290184 290242 290289 290302 290317 290323 290355 290370 290397 290406 [...] (17 flits)
Class 0:
Remaining flits: 291035 291049 291053 291105 291142 291159 291169 291176 291178 291186 [...] (42 flits)
Measured flits: 291035 291049 291053 291105 291142 291159 291169 291178 291186 291205 [...] (19 flits)
Class 0:
Remaining flits: 291745 291797 291817 291833 291838 291842 291876 291879 291887 291894 [...] (51 flits)
Measured flits: 291745 291797 291817 291833 291838 291842 291876 291927 291932 291940 [...] (15 flits)
Class 0:
Remaining flits: 292426 292468 292505 292586 292594 292604 292610 292621 292625 292647 [...] (43 flits)
Measured flits: 292426 292468 292505 292586 292594 292604 292610 292621 292661 292670 [...] (14 flits)
Average latency for class 0 exceeded 500 cycles. Aborting simulation.
Simulation unstable, ending ...
Total run time 5.45841
