BEGIN Configuration File: /tmp/tmpbg8xtbgr.cfg
topology = mesh;
k = 4;
n = 2;
routing_function = planar_adapt;
num_vcs = 4;
vc_buf_size = 4;
wait_for_tail_credit = 1;
vc_allocator = islip;
sw_allocator = islip;
alloc_iters = 1;
credit_delay = 2;
routing_delay = 1;
vc_alloc_delay = 1;
sw_alloc_delay = 1;
input_speedup = 2;
output_speedup = 1;
internal_speedup = 1.0;
traffic = transpose;
packet_size = 1;
sim_type = latency;
injection_rate = 0.01;
warmup_periods = 3;
sample_period = 500;
sim_count = 50;
seed = 1;
link_failures = 2;
fail_seed = 202;

END Configuration File: /tmp/tmpbg8xtbgr.cfg
failure at node 4, channel 2 (1/2)
failure at node 13, channel 0 (2/2)
Class 0:
Packet latency average = 21.0588
	minimum = 7
	maximum = 55
Network latency average = 21.0588
	minimum = 7
	maximum = 55
Slowest packet = 22
Flit latency average = 21.0588
	minimum = 7
	maximum = 55
Slowest flit = 22
Fragmentation average = 0
	minimum = 0
	maximum = 0
Injected packet rate average = 0.011125
	minimum = 0.006 (at node 1)
	maximum = 0.022 (at node 7)
Accepted packet rate average = 0.010625
	minimum = 0.004 (at node 2)
	maximum = 0.022 (at node 13)
Injected flit rate average = 0.011125
	minimum = 0.006 (at node 1)
	maximum = 0.022 (at node 7)
Accepted flit rate average= 0.010625
	minimum = 0.004 (at node 2)
	maximum = 0.022 (at node 13)
Injected packet length average = 1
Accepted packet length average = 1
Total in-flight flits = 4 (0 measured)
latency change    = 1
throughput change = 1
Class 0:
Packet latency average = 19.5774
	minimum = 7
	maximum = 55
Network latency average = 19.5774
	minimum = 7
	maximum = 55
Slowest packet = 22
Flit latency average = 19.5774
	minimum = 7
	maximum = 55
Slowest flit = 22
Fragmentation average = 0
	minimum = 0
	maximum = 0
Injected packet rate average = 0.0108125
	minimum = 0.006 (at node 2)
	maximum = 0.019 (at node 7)
Accepted packet rate average = 0.0105
	minimum = 0.006 (at node 8)
	maximum = 0.019 (at node 13)
Injected flit rate average = 0.0108125
	minimum = 0.006 (at node 2)
	maximum = 0.019 (at node 7)
Accepted flit rate average= 0.0105
	minimum = 0.006 (at node 8)
	maximum = 0.019 (at node 13)
Injected packet length average = 1
Accepted packet length average = 1
Total in-flight flits = 5 (0 measured)
latency change    = 0.0756711
throughput change = 0.0119048
Class 0:
Packet latency average = 22.7397
	minimum = 7
	maximum = 51
Network latency average = 22.7397
	minimum = 7
	maximum = 51
Slowest packet = 204
Flit latency average = 22.7397
	minimum = 7
	maximum = 51
Slowest flit = 204
Fragmentation average = 0
	minimum = 0
	maximum = 0
Injected packet rate average = 0.009
	minimum = 0.002 (at node 6)
	maximum = 0.026 (at node 12)
Accepted packet rate average = 0.009125
	minimum = 0.002 (at node 9)
	maximum = 0.03 (at node 3)
Injected flit rate average = 0.009
	minimum = 0.002 (at node 6)
	maximum = 0.026 (at node 12)
Accepted flit rate average= 0.009125
	minimum = 0.002 (at node 9)
	maximum = 0.03 (at node 3)
Injected packet length average = 1
Accepted packet length average = 1
Total in-flight flits = 4 (0 measured)
latency change    = 0.139067
throughput change = 0.150685
Warmed up ...Time used is 1500 cycles
Class 0:
Packet latency average = 22.598
	minimum = 7
	maximum = 58
Network latency average = 22.598
	minimum = 7
	maximum = 58
Slowest packet = 297
Flit latency average = 22.8585
	minimum = 7
	maximum = 58
Slowest flit = 297
Fragmentation average = 0
	minimum = 0
	maximum = 0
Injected packet rate average = 0.0135
	minimum = 0.006 (at node 2)
	maximum = 0.026 (at node 8)
Accepted packet rate average = 0.01325
	minimum = 0.004 (at node 8)
	maximum = 0.026 (at node 2)
Injected flit rate average = 0.0135
	minimum = 0.006 (at node 2)
	maximum = 0.026 (at node 8)
Accepted flit rate average= 0.01325
	minimum = 0.004 (at node 8)
	maximum = 0.026 (at node 2)
Injected packet length average = 1
Accepted packet length average = 1
Total in-flight flits = 6 (6 measured)
latency change    = 0.00626987
throughput change = 0.311321
Class 0:
Packet latency average = 21.4053
	minimum = 7
	maximum = 58
Network latency average = 21.4053
	minimum = 7
	maximum = 58
Slowest packet = 297
Flit latency average = 21.5722
	minimum = 7
	maximum = 58
Slowest flit = 297
Fragmentation average = 0
	minimum = 0
	maximum = 0
Injected packet rate average = 0.0119375
	minimum = 0.007 (at node 0)
	maximum = 0.019 (at node 8)
Accepted packet rate average = 0.012125
	minimum = 0.007 (at node 0)
	maximum = 0.02 (at node 2)
Injected flit rate average = 0.0119375
	minimum = 0.007 (at node 0)
	maximum = 0.019 (at node 8)
Accepted flit rate average= 0.012125
	minimum = 0.007 (at node 0)
	maximum = 0.02 (at node 2)
Injected packet length average = 1
Accepted packet length average = 1
Total in-flight flits = 1 (1 measured)
latency change    = 0.0557235
throughput change = 0.0927835
Class 0:
Packet latency average = 21.5805
	minimum = 7
	maximum = 58
Network latency average = 21.5805
	minimum = 7
	maximum = 58
Slowest packet = 297
Flit latency average = 21.6974
	minimum = 7
	maximum = 58
Slowest flit = 297
Fragmentation average = 0
	minimum = 0
	maximum = 0
Injected packet rate average = 0.0112083
	minimum = 0.006 (at node 0)
	maximum = 0.0153333 (at node 8)
Accepted packet rate average = 0.0112917
	minimum = 0.006 (at node 0)
	maximum = 0.016 (at node 2)
Injected flit rate average = 0.0112083
	minimum = 0.006 (at node 0)
	maximum = 0.0153333 (at node 8)
Accepted flit rate average= 0.0112917
	minimum = 0.006 (at node 0)
	maximum = 0.016 (at node 2)
Injected packet length average = 1
Accepted packet length average = 1
Total in-flight flits = 2 (2 measured)
latency change    = 0.00812127
throughput change = 0.0738007
Class 0:
Packet latency average = 21.7804
	minimum = 7
	maximum = 58
Network latency average = 21.7804
	minimum = 7
	maximum = 58
Slowest packet = 297
Flit latency average = 21.871
	minimum = 7
	maximum = 58
Slowest flit = 297
Fragmentation average = 0
	minimum = 0
	maximum = 0
Injected packet rate average = 0.0106875
	minimum = 0.0055 (at node 0)
	maximum = 0.0135 (at node 8)
Accepted packet rate average = 0.0106563
	minimum = 0.0055 (at node 0)
	maximum = 0.014 (at node 2)
Injected flit rate average = 0.0106875
	minimum = 0.0055 (at node 0)
	maximum = 0.0135 (at node 8)
Accepted flit rate average= 0.0106563
	minimum = 0.0055 (at node 0)
	maximum = 0.014 (at node 2)
Injected packet length average = 1
Accepted packet length average = 1
Total in-flight flits = 5 (5 measured)
latency change    = 0.00917756
throughput change = 0.0596285
Class 0:
Packet latency average = 21.4689
	minimum = 7
	maximum = 58
Network latency average = 21.4689
	minimum = 7
	maximum = 58
Slowest packet = 297
Flit latency average = 21.545
	minimum = 7
	maximum = 58
Slowest flit = 297
Fragmentation average = 0
	minimum = 0
	maximum = 0
Injected packet rate average = 0.010475
	minimum = 0.006 (at node 0)
	maximum = 0.0132 (at node 6)
Accepted packet rate average = 0.01055
	minimum = 0.006 (at node 0)
	maximum = 0.0136 (at node 11)
Injected flit rate average = 0.010475
	minimum = 0.006 (at node 0)
	maximum = 0.0132 (at node 6)
Accepted flit rate average= 0.01055
	minimum = 0.006 (at node 0)
	maximum = 0.0136 (at node 11)
Injected packet length average = 1
Accepted packet length average = 1
Total in-flight flits = 1 (1 measured)
latency change    = 0.0145101
throughput change = 0.0100711
Class 0:
Packet latency average = 21.6594
	minimum = 7
	maximum = 58
Network latency average = 21.6594
	minimum = 7
	maximum = 58
Slowest packet = 297
Flit latency average = 21.7213
	minimum = 7
	maximum = 58
Slowest flit = 297
Fragmentation average = 0
	minimum = 0
	maximum = 0
Injected packet rate average = 0.0105208
	minimum = 0.00733333 (at node 0)
	maximum = 0.0133333 (at node 14)
Accepted packet rate average = 0.0105417
	minimum = 0.00733333 (at node 0)
	maximum = 0.0136667 (at node 11)
Injected flit rate average = 0.0105208
	minimum = 0.00733333 (at node 0)
	maximum = 0.0133333 (at node 14)
Accepted flit rate average= 0.0105417
	minimum = 0.00733333 (at node 0)
	maximum = 0.0136667 (at node 11)
Injected packet length average = 1
Accepted packet length average = 1
Total in-flight flits = 3 (3 measured)
latency change    = 0.00879357
throughput change = 0.000790514
Class 0:
Packet latency average = 22.0343
	minimum = 7
	maximum = 62
Network latency average = 22.0343
	minimum = 7
	maximum = 62
Slowest packet = 765
Flit latency average = 22.0852
	minimum = 7
	maximum = 62
Slowest flit = 765
Fragmentation average = 0
	minimum = 0
	maximum = 0
Injected packet rate average = 0.0105
	minimum = 0.00742857 (at node 10)
	maximum = 0.0131429 (at node 1)
Accepted packet rate average = 0.0104821
	minimum = 0.00742857 (at node 10)
	maximum = 0.0128571 (at node 11)
Injected flit rate average = 0.0105
	minimum = 0.00742857 (at node 10)
	maximum = 0.0131429 (at node 1)
Accepted flit rate average= 0.0104821
	minimum = 0.00742857 (at node 10)
	maximum = 0.0128571 (at node 11)
Injected packet length average = 1
Accepted packet length average = 1
Total in-flight flits = 5 (5 measured)
latency change    = 0.0170163
throughput change = 0.00567859
Draining all recorded packets ...
Draining remaining packets ...
Time taken is 5089 cycles
Class 0:
Packet latency average = 19.4688
	minimum = 7
	maximum = 47
Network latency average = 19.4688
	minimum = 7
	maximum = 47
Slowest packet = 863
Flit latency average = 19.4688
	minimum = 7
	maximum = 47
Slowest flit = 863
Fragmentation average = 0
	minimum = 0
	maximum = 0
Injected packet rate average = 0.0085
	minimum = 0.004 (at node 1)
	maximum = 0.016 (at node 10)
Accepted packet rate average = 0.008
	minimum = 0.004 (at node 1)
	maximum = 0.016 (at node 10)
Injected flit rate average = 0.0085
	minimum = 0.004 (at node 1)
	maximum = 0.016 (at node 10)
Accepted flit rate average= 0.008
	minimum = 0.004 (at node 1)
	maximum = 0.016 (at node 10)
Injected packet length average = 1
Accepted packet length average = 1
Total in-flight flits = 4 (0 measured)
latency change    = 1
throughput change = 1
Class 0:
Packet latency average = 20.6439
	minimum = 7
	maximum = 52
Network latency average = 20.6439
	minimum = 7
	maximum = 52
Slowest packet = 968
Flit latency average = 20.6439
	minimum = 7
	maximum = 52
Slowest flit = 968
Fragmentation average = 0
	minimum = 0
	maximum = 0
Injected packet rate average = 0.0085
	minimum = 0.004 (at node 13)
	maximum = 0.013 (at node 0)
Accepted packet rate average = 0.00825
	minimum = 0.004 (at node 4)
	maximum = 0.013 (at node 0)
Injected flit rate average = 0.0085
	minimum = 0.004 (at node 13)
	maximum = 0.013 (at node 0)
Accepted flit rate average= 0.00825
	minimum = 0.004 (at node 4)
	maximum = 0.013 (at node 0)
Injected packet length average = 1
Accepted packet length average = 1
Total in-flight flits = 4 (0 measured)
latency change    = 0.0569266
throughput change = 0.030303
Class 0:
Packet latency average = 20.6486
	minimum = 7
	maximum = 53
Network latency average = 20.6486
	minimum = 7
	maximum = 53
Slowest packet = 971
Flit latency average = 20.6486
	minimum = 7
	maximum = 53
Slowest flit = 971
Fragmentation average = 0
	minimum = 0
	maximum = 0
Injected packet rate average = 0.008875
	minimum = 0.002 (at node 1)
	maximum = 0.016 (at node 10)
Accepted packet rate average = 0.00925
	minimum = 0.004 (at node 4)
	maximum = 0.016 (at node 10)
Injected flit rate average = 0.008875
	minimum = 0.002 (at node 1)
	maximum = 0.016 (at node 10)
Accepted flit rate average= 0.00925
	minimum = 0.004 (at node 4)
	maximum = 0.016 (at node 10)
Injected packet length average = 1
Accepted packet length average = 1
Total in-flight flits = 1 (0 measured)
latency change    = 0.000228066
throughput change = 0.108108
Warmed up ...Time used is 1500 cycles
Class 0:
Packet latency average = 21.029
	minimum = 7
	maximum = 47
Network latency average = 21.029
	minimum = 7
	maximum = 47
Slowest packet = 1062
Flit latency average = 21.2571
	minimum = 7
	maximum = 47
Slowest flit = 1062
Fragmentation average = 0
	minimum = 0
	maximum = 0
Injected packet rate average = 0.008875
	minimum = 0.002 (at node 0)
	maximum = 0.02 (at node 6)
Accepted packet rate average = 0.00875
	minimum = 0.002 (at node 0)
	maximum = 0.02 (at node 9)
Injected flit rate average = 0.008875
	minimum = 0.002 (at node 0)
	maximum = 0.02 (at node 6)
Accepted flit rate average= 0.00875
	minimum = 0.002 (at node 0)
	maximum = 0.02 (at node 9)
Injected packet length average = 1
Accepted packet length average = 1
Total in-flight flits = 2 (2 measured)
latency change    = 0.0180863
throughput change = 0.0571429
Class 0:
Packet latency average = 21.22
	minimum = 7
	maximum = 53
Network latency average = 21.22
	minimum = 7
	maximum = 53
Slowest packet = 1143
Flit latency average = 21.3245
	minimum = 7
	maximum = 53
Slowest flit = 1143
Fragmentation average = 0
	minimum = 0
	maximum = 0
Injected packet rate average = 0.00975
	minimum = 0.004 (at node 8)
	maximum = 0.016 (at node 4)
Accepted packet rate average = 0.0094375
	minimum = 0.004 (at node 2)
	maximum = 0.016 (at node 1)
Injected flit rate average = 0.00975
	minimum = 0.004 (at node 8)
	maximum = 0.016 (at node 4)
Accepted flit rate average= 0.0094375
	minimum = 0.004 (at node 2)
	maximum = 0.016 (at node 1)
Injected packet length average = 1
Accepted packet length average = 1
Total in-flight flits = 6 (6 measured)
latency change    = 0.00900163
throughput change = 0.0728477
Class 0:
Packet latency average = 20.4421
	minimum = 7
	maximum = 53
Network latency average = 20.4421
	minimum = 7
	maximum = 53
Slowest packet = 1143
Flit latency average = 20.5103
	minimum = 7
	maximum = 53
Slowest flit = 1143
Fragmentation average = 0
	minimum = 0
	maximum = 0
Injected packet rate average = 0.0101667
	minimum = 0.006 (at node 1)
	maximum = 0.016 (at node 4)
Accepted packet rate average = 0.010125
	minimum = 0.006 (at node 2)
	maximum = 0.0153333 (at node 1)
Injected flit rate average = 0.0101667
	minimum = 0.006 (at node 1)
	maximum = 0.016 (at node 4)
Accepted flit rate average= 0.010125
	minimum = 0.006 (at node 2)
	maximum = 0.0153333 (at node 1)
Injected packet length average = 1
Accepted packet length average = 1
Total in-flight flits = 2 (2 measured)
latency change    = 0.0380513
throughput change = 0.0679012
Class 0:
Packet latency average = 20.5727
	minimum = 7
	maximum = 53
Network latency average = 20.5727
	minimum = 7
	maximum = 53
Slowest packet = 1143
Flit latency average = 20.6224
	minimum = 7
	maximum = 53
Slowest flit = 1143
Fragmentation average = 0
	minimum = 0
	maximum = 0
Injected packet rate average = 0.0104688
	minimum = 0.007 (at node 1)
	maximum = 0.0145 (at node 4)
Accepted packet rate average = 0.0103438
	minimum = 0.007 (at node 4)
	maximum = 0.0145 (at node 1)
Injected flit rate average = 0.0104688
	minimum = 0.007 (at node 1)
	maximum = 0.0145 (at node 4)
Accepted flit rate average= 0.0103438
	minimum = 0.007 (at node 4)
	maximum = 0.0145 (at node 1)
Injected packet length average = 1
Accepted packet length average = 1
Total in-flight flits = 5 (5 measured)
latency change    = 0.00634717
throughput change = 0.021148
Class 0:
Packet latency average = 20.7871
	minimum = 7
	maximum = 55
Network latency average = 20.7871
	minimum = 7
	maximum = 55
Slowest packet = 1399
Flit latency average = 20.8272
	minimum = 7
	maximum = 55
Slowest flit = 1399
Fragmentation average = 0
	minimum = 0
	maximum = 0
Injected packet rate average = 0.01015
	minimum = 0.0072 (at node 1)
	maximum = 0.0132 (at node 4)
Accepted packet rate average = 0.010125
	minimum = 0.0072 (at node 4)
	maximum = 0.0132 (at node 1)
Injected flit rate average = 0.01015
	minimum = 0.0072 (at node 1)
	maximum = 0.0132 (at node 4)
Accepted flit rate average= 0.010125
	minimum = 0.0072 (at node 4)
	maximum = 0.0132 (at node 1)
Injected packet length average = 1
Accepted packet length average = 1
Total in-flight flits = 2 (2 measured)
latency change    = 0.0103141
throughput change = 0.0216049
Class 0:
Packet latency average = 21.1975
	minimum = 7
	maximum = 62
Network latency average = 21.1975
	minimum = 7
	maximum = 62
Slowest packet = 1503
Flit latency average = 21.2306
	minimum = 7
	maximum = 62
Slowest flit = 1503
Fragmentation average = 0
	minimum = 0
	maximum = 0
Injected packet rate average = 0.0100417
	minimum = 0.00733333 (at node 8)
	maximum = 0.0123333 (at node 6)
Accepted packet rate average = 0.0099375
	minimum = 0.00733333 (at node 2)
	maximum = 0.012 (at node 1)
Injected flit rate average = 0.0100417
	minimum = 0.00733333 (at node 8)
	maximum = 0.0123333 (at node 6)
Accepted flit rate average= 0.0099375
	minimum = 0.00733333 (at node 2)
	maximum = 0.012 (at node 1)
Injected packet length average = 1
Accepted packet length average = 1
Total in-flight flits = 6 (6 measured)
latency change    = 0.0193584
throughput change = 0.0188679
Draining all recorded packets ...
Draining remaining packets ...
Time taken is 4563 cycles
Class 0:
Packet latency average = 20.5663
	minimum = 7
	maximum = 47
Network latency average = 20.5663
	minimum = 7
	maximum = 47
Slowest packet = 1570
Flit latency average = 20.5663
	minimum = 7
	maximum = 47
Slowest flit = 1570
Fragmentation average = 0
	minimum = 0
	maximum = 0
Injected packet rate average = 0.010625
	minimum = 0.006 (at node 0)
	maximum = 0.02 (at node 2)
Accepted packet rate average = 0.010375
	minimum = 0.006 (at node 0)
	maximum = 0.02 (at node 8)
Injected flit rate average = 0.010625
	minimum = 0.006 (at node 0)
	maximum = 0.02 (at node 2)
Accepted flit rate average= 0.010375
	minimum = 0.006 (at node 0)
	maximum = 0.02 (at node 8)
Injected packet length average = 1
Accepted packet length average = 1
Total in-flight flits = 2 (0 measured)
latency change    = 1
throughput change = 1
Class 0:
Packet latency average = 20.936
	minimum = 7
	maximum = 59
Network latency average = 20.936
	minimum = 7
	maximum = 59
Slowest packet = 1641
Flit latency average = 20.936
	minimum = 7
	maximum = 59
Slowest flit = 1641
Fragmentation average = 0
	minimum = 0
	maximum = 0
Injected packet rate average = 0.010875
	minimum = 0.006 (at node 8)
	maximum = 0.018 (at node 6)
Accepted packet rate average = 0.01075
	minimum = 0.006 (at node 2)
	maximum = 0.018 (at node 9)
Injected flit rate average = 0.010875
	minimum = 0.006 (at node 8)
	maximum = 0.018 (at node 6)
Accepted flit rate average= 0.01075
	minimum = 0.006 (at node 2)
	maximum = 0.018 (at node 9)
Injected packet length average = 1
Accepted packet length average = 1
Total in-flight flits = 2 (0 measured)
latency change    = 0.0176624
throughput change = 0.0348837
Class 0:
Packet latency average = 20.2941
	minimum = 7
	maximum = 47
Network latency average = 20.2941
	minimum = 7
	maximum = 47
Slowest packet = 1748
Flit latency average = 20.2941
	minimum = 7
	maximum = 47
Slowest flit = 1748
Fragmentation average = 0
	minimum = 0
	maximum = 0
Injected packet rate average = 0.008875
	minimum = 0.002 (at node 0)
	maximum = 0.016 (at node 1)
Accepted packet rate average = 0.0085
	minimum = 0.002 (at node 0)
	maximum = 0.016 (at node 11)
Injected flit rate average = 0.008875
	minimum = 0.002 (at node 0)
	maximum = 0.016 (at node 1)
Accepted flit rate average= 0.0085
	minimum = 0.002 (at node 0)
	maximum = 0.016 (at node 11)
Injected packet length average = 1
Accepted packet length average = 1
Total in-flight flits = 5 (0 measured)
latency change    = 0.0316313
throughput change = 0.264706
Warmed up ...Time used is 1500 cycles
Class 0:
Packet latency average = 19.1077
	minimum = 7
	maximum = 47
Network latency average = 19.1077
	minimum = 7
	maximum = 47
Slowest packet = 1790
Flit latency average = 19.8286
	minimum = 7
	maximum = 48
Slowest flit = 1779
Fragmentation average = 0
	minimum = 0
	maximum = 0
Injected packet rate average = 0.008375
	minimum = 0.002 (at node 3)
	maximum = 0.02 (at node 9)
Accepted packet rate average = 0.00875
	minimum = 0.004 (at node 7)
	maximum = 0.02 (at node 6)
Injected flit rate average = 0.008375
	minimum = 0.002 (at node 3)
	maximum = 0.02 (at node 9)
Accepted flit rate average= 0.00875
	minimum = 0.004 (at node 7)
	maximum = 0.02 (at node 6)
Injected packet length average = 1
Accepted packet length average = 1
Total in-flight flits = 2 (2 measured)
latency change    = 0.0620915
throughput change = 0.0285714
Class 0:
Packet latency average = 20.9141
	minimum = 7
	maximum = 47
Network latency average = 20.9141
	minimum = 7
	maximum = 47
Slowest packet = 1790
Flit latency average = 21.2256
	minimum = 7
	maximum = 48
Slowest flit = 1779
Fragmentation average = 0
	minimum = 0
	maximum = 0
Injected packet rate average = 0.0081875
	minimum = 0.005 (at node 3)
	maximum = 0.017 (at node 9)
Accepted packet rate average = 0.0083125
	minimum = 0.005 (at node 11)
	maximum = 0.017 (at node 6)
Injected flit rate average = 0.0081875
	minimum = 0.005 (at node 3)
	maximum = 0.017 (at node 9)
Accepted flit rate average= 0.0083125
	minimum = 0.005 (at node 11)
	maximum = 0.017 (at node 6)
Injected packet length average = 1
Accepted packet length average = 1
Total in-flight flits = 3 (3 measured)
latency change    = 0.0863711
throughput change = 0.0526316
Class 0:
Packet latency average = 21.4573
	minimum = 7
	maximum = 47
Network latency average = 21.4573
	minimum = 7
	maximum = 47
Slowest packet = 1790
Flit latency average = 21.6471
	minimum = 7
	maximum = 48
Slowest flit = 1779
Fragmentation average = 0
	minimum = 0
	maximum = 0
Injected packet rate average = 0.00841667
	minimum = 0.00466667 (at node 7)
	maximum = 0.014 (at node 9)
Accepted packet rate average = 0.0085
	minimum = 0.00533333 (at node 0)
	maximum = 0.014 (at node 6)
Injected flit rate average = 0.00841667
	minimum = 0.00466667 (at node 7)
	maximum = 0.014 (at node 9)
Accepted flit rate average= 0.0085
	minimum = 0.00533333 (at node 0)
	maximum = 0.014 (at node 6)
Injected packet length average = 1
Accepted packet length average = 1
Total in-flight flits = 3 (3 measured)
latency change    = 0.0253165
throughput change = 0.0220588
Class 0:
Packet latency average = 21.4394
	minimum = 7
	maximum = 54
Network latency average = 21.4394
	minimum = 7
	maximum = 54
Slowest packet = 2063
Flit latency average = 21.5714
	minimum = 7
	maximum = 54
Slowest flit = 2063
Fragmentation average = 0
	minimum = 0
	maximum = 0
Injected packet rate average = 0.00925
	minimum = 0.006 (at node 0)
	maximum = 0.013 (at node 8)
Accepted packet rate average = 0.0091875
	minimum = 0.0055 (at node 7)
	maximum = 0.0125 (at node 2)
Injected flit rate average = 0.00925
	minimum = 0.006 (at node 0)
	maximum = 0.013 (at node 8)
Accepted flit rate average= 0.0091875
	minimum = 0.0055 (at node 7)
	maximum = 0.0125 (at node 2)
Injected packet length average = 1
Accepted packet length average = 1
Total in-flight flits = 7 (7 measured)
latency change    = 0.000832114
throughput change = 0.0748299
Class 0:
Packet latency average = 21.2161
	minimum = 7
	maximum = 54
Network latency average = 21.2161
	minimum = 7
	maximum = 54
Slowest packet = 2063
Flit latency average = 21.3251
	minimum = 7
	maximum = 54
Slowest flit = 2063
Fragmentation average = 0
	minimum = 0
	maximum = 0
Injected packet rate average = 0.0091
	minimum = 0.0064 (at node 0)
	maximum = 0.0116 (at node 4)
Accepted packet rate average = 0.00915
	minimum = 0.006 (at node 11)
	maximum = 0.0116 (at node 1)
Injected flit rate average = 0.0091
	minimum = 0.0064 (at node 0)
	maximum = 0.0116 (at node 4)
Accepted flit rate average= 0.00915
	minimum = 0.006 (at node 11)
	maximum = 0.0116 (at node 1)
Injected packet length average = 1
Accepted packet length average = 1
Total in-flight flits = 3 (3 measured)
latency change    = 0.0105288
throughput change = 0.00409836
Class 0:
Packet latency average = 21.1378
	minimum = 7
	maximum = 54
Network latency average = 21.1378
	minimum = 7
	maximum = 54
Slowest packet = 2063
Flit latency average = 21.2324
	minimum = 7
	maximum = 54
Slowest flit = 2063
Fragmentation average = 0
	minimum = 0
	maximum = 0
Injected packet rate average = 0.00879167
	minimum = 0.00666667 (at node 0)
	maximum = 0.0103333 (at node 4)
Accepted packet rate average = 0.008875
	minimum = 0.00666667 (at node 0)
	maximum = 0.0106667 (at node 1)
Injected flit rate average = 0.00879167
	minimum = 0.00666667 (at node 0)
	maximum = 0.0103333 (at node 4)
Accepted flit rate average= 0.008875
	minimum = 0.00666667 (at node 0)
	maximum = 0.0106667 (at node 1)
Injected packet length average = 1
Accepted packet length average = 1
Total in-flight flits = 1 (1 measured)
latency change    = 0.00370424
throughput change = 0.0309859
Class 0:
Packet latency average = 20.7976
	minimum = 7
	maximum = 54
Network latency average = 20.7976
	minimum = 7
	maximum = 54
Slowest packet = 2063
Flit latency average = 20.8818
	minimum = 7
	maximum = 54
Slowest flit = 2063
Fragmentation average = 0
	minimum = 0
	maximum = 0
Injected packet rate average = 0.008875
	minimum = 0.00657143 (at node 14)
	maximum = 0.0108571 (at node 8)
Accepted packet rate average = 0.00891071
	minimum = 0.00657143 (at node 11)
	maximum = 0.0108571 (at node 2)
Injected flit rate average = 0.008875
	minimum = 0.00657143 (at node 14)
	maximum = 0.0108571 (at node 8)
Accepted flit rate average= 0.00891071
	minimum = 0.00657143 (at node 11)
	maximum = 0.0108571 (at node 2)
Injected packet length average = 1
Accepted packet length average = 1
Total in-flight flits = 3 (3 measured)
latency change    = 0.0163575
throughput change = 0.00400802
Draining all recorded packets ...
Draining remaining packets ...
Time taken is 5025 cycles
Class 0:
Packet latency average = 20.2051
	minimum = 7
	maximum = 55
Network latency average = 20.2051
	minimum = 7
	maximum = 55
Slowest packet = 2295
Flit latency average = 20.2051
	minimum = 7
	maximum = 55
Slowest flit = 2295
Fragmentation average = 0
	minimum = 0
	maximum = 0
Injected packet rate average = 0.01025
	minimum = 0 (at node 5)
	maximum = 0.018 (at node 7)
Accepted packet rate average = 0.00975
	minimum = 0 (at node 5)
	maximum = 0.016 (at node 11)
Injected flit rate average = 0.01025
	minimum = 0 (at node 5)
	maximum = 0.018 (at node 7)
Accepted flit rate average= 0.00975
	minimum = 0 (at node 5)
	maximum = 0.016 (at node 11)
Injected packet length average = 1
Accepted packet length average = 1
Total in-flight flits = 4 (0 measured)
latency change    = 1
throughput change = 1
Class 0:
Packet latency average = 20.8981
	minimum = 7
	maximum = 58
Network latency average = 20.8981
	minimum = 7
	maximum = 58
Slowest packet = 2385
Flit latency average = 20.8981
	minimum = 7
	maximum = 58
Slowest flit = 2385
Fragmentation average = 0
	minimum = 0
	maximum = 0
Injected packet rate average = 0.009875
	minimum = 0.005 (at node 5)
	maximum = 0.013 (at node 0)
Accepted packet rate average = 0.0098125
	minimum = 0.005 (at node 5)
	maximum = 0.013 (at node 0)
Injected flit rate average = 0.009875
	minimum = 0.005 (at node 5)
	maximum = 0.013 (at node 0)
Accepted flit rate average= 0.0098125
	minimum = 0.005 (at node 5)
	maximum = 0.013 (at node 0)
Injected packet length average = 1
Accepted packet length average = 1
Total in-flight flits = 1 (0 measured)
latency change    = 0.0331591
throughput change = 0.00636943
Class 0:
Packet latency average = 22.56
	minimum = 7
	maximum = 55
Network latency average = 22.56
	minimum = 7
	maximum = 55
Slowest packet = 2494
Flit latency average = 22.56
	minimum = 7
	maximum = 55
Slowest flit = 2494
Fragmentation average = 0
	minimum = 0
	maximum = 0
Injected packet rate average = 0.009625
	minimum = 0.004 (at node 9)
	maximum = 0.016 (at node 1)
Accepted packet rate average = 0.009375
	minimum = 0.004 (at node 6)
	maximum = 0.014 (at node 4)
Injected flit rate average = 0.009625
	minimum = 0.004 (at node 9)
	maximum = 0.016 (at node 1)
Accepted flit rate average= 0.009375
	minimum = 0.004 (at node 6)
	maximum = 0.014 (at node 4)
Injected packet length average = 1
Accepted packet length average = 1
Total in-flight flits = 3 (0 measured)
latency change    = 0.0736663
throughput change = 0.0466667
Warmed up ...Time used is 1500 cycles
Class 0:
Packet latency average = 17.8611
	minimum = 7
	maximum = 55
Network latency average = 17.8611
	minimum = 7
	maximum = 55
Slowest packet = 2565
Flit latency average = 17.8267
	minimum = 7
	maximum = 55
Slowest flit = 2565
Fragmentation average = 0
	minimum = 0
	maximum = 0
Injected packet rate average = 0.00925
	minimum = 0.004 (at node 0)
	maximum = 0.016 (at node 15)
Accepted packet rate average = 0.009375
	minimum = 0.004 (at node 0)
	maximum = 0.016 (at node 1)
Injected flit rate average = 0.00925
	minimum = 0.004 (at node 0)
	maximum = 0.016 (at node 15)
Accepted flit rate average= 0.009375
	minimum = 0.004 (at node 0)
	maximum = 0.016 (at node 1)
Injected packet length average = 1
Accepted packet length average = 1
Total in-flight flits = 2 (2 measured)
latency change    = 0.263079
throughput change = 0
Class 0:
Packet latency average = 20.2424
	minimum = 7
	maximum = 55
Network latency average = 20.2424
	minimum = 7
	maximum = 55
Slowest packet = 2565
Flit latency average = 20.1845
	minimum = 7
	maximum = 55
Slowest flit = 2565
Fragmentation average = 0
	minimum = 0
	maximum = 0
Injected packet rate average = 0.0104375
	minimum = 0.006 (at node 3)
	maximum = 0.016 (at node 9)
Accepted packet rate average = 0.0105
	minimum = 0.006 (at node 12)
	maximum = 0.016 (at node 6)
Injected flit rate average = 0.0104375
	minimum = 0.006 (at node 3)
	maximum = 0.016 (at node 9)
Accepted flit rate average= 0.0105
	minimum = 0.006 (at node 12)
	maximum = 0.016 (at node 6)
Injected packet length average = 1
Accepted packet length average = 1
Total in-flight flits = 2 (2 measured)
latency change    = 0.11764
throughput change = 0.107143
Class 0:
Packet latency average = 20.2618
	minimum = 7
	maximum = 55
Network latency average = 20.2618
	minimum = 7
	maximum = 55
Slowest packet = 2565
Flit latency average = 20.2203
	minimum = 7
	maximum = 55
Slowest flit = 2565
Fragmentation average = 0
	minimum = 0
	maximum = 0
Injected packet rate average = 0.00991667
	minimum = 0.006 (at node 3)
	maximum = 0.0146667 (at node 15)
Accepted packet rate average = 0.00983333
	minimum = 0.006 (at node 12)
	maximum = 0.014 (at node 15)
Injected flit rate average = 0.00991667
	minimum = 0.006 (at node 3)
	maximum = 0.0146667 (at node 15)
Accepted flit rate average= 0.00983333
	minimum = 0.006 (at node 12)
	maximum = 0.014 (at node 15)
Injected packet length average = 1
Accepted packet length average = 1
Total in-flight flits = 5 (5 measured)
latency change    = 0.000956397
throughput change = 0.0677966
Class 0:
Packet latency average = 20.0155
	minimum = 7
	maximum = 55
Network latency average = 20.0155
	minimum = 7
	maximum = 55
Slowest packet = 2565
Flit latency average = 19.9877
	minimum = 7
	maximum = 55
Slowest flit = 2565
Fragmentation average = 0
	minimum = 0
	maximum = 0
Injected packet rate average = 0.0100938
	minimum = 0.006 (at node 8)
	maximum = 0.014 (at node 15)
Accepted packet rate average = 0.0101563
	minimum = 0.006 (at node 2)
	maximum = 0.014 (at node 15)
Injected flit rate average = 0.0100938
	minimum = 0.006 (at node 8)
	maximum = 0.014 (at node 15)
Accepted flit rate average= 0.0101563
	minimum = 0.006 (at node 2)
	maximum = 0.014 (at node 15)
Injected packet length average = 1
Accepted packet length average = 1
Total in-flight flits = 1 (1 measured)
latency change    = 0.0123042
throughput change = 0.0317949
Class 0:
Packet latency average = 20.2588
	minimum = 7
	maximum = 58
Network latency average = 20.2588
	minimum = 7
	maximum = 58
Slowest packet = 2885
Flit latency average = 20.2344
	minimum = 7
	maximum = 58
Slowest flit = 2885
Fragmentation average = 0
	minimum = 0
	maximum = 0
Injected packet rate average = 0.01005
	minimum = 0.006 (at node 8)
	maximum = 0.0132 (at node 15)
Accepted packet rate average = 0.010025
	minimum = 0.006 (at node 2)
	maximum = 0.0132 (at node 15)
Injected flit rate average = 0.01005
	minimum = 0.006 (at node 8)
	maximum = 0.0132 (at node 15)
Accepted flit rate average= 0.010025
	minimum = 0.006 (at node 2)
	maximum = 0.0132 (at node 15)
Injected packet length average = 1
Accepted packet length average = 1
Total in-flight flits = 4 (4 measured)
latency change    = 0.0120079
throughput change = 0.0130923
Class 0:
Packet latency average = 20.6626
	minimum = 7
	maximum = 58
Network latency average = 20.6626
	minimum = 7
	maximum = 58
Slowest packet = 2885
Flit latency average = 20.6401
	minimum = 7
	maximum = 58
Slowest flit = 2885
Fragmentation average = 0
	minimum = 0
	maximum = 0
Injected packet rate average = 0.0101667
	minimum = 0.00666667 (at node 8)
	maximum = 0.014 (at node 7)
Accepted packet rate average = 0.0101875
	minimum = 0.00666667 (at node 2)
	maximum = 0.014 (at node 13)
Injected flit rate average = 0.0101667
	minimum = 0.00666667 (at node 8)
	maximum = 0.014 (at node 7)
Accepted flit rate average= 0.0101875
	minimum = 0.00666667 (at node 2)
	maximum = 0.014 (at node 13)
Injected packet length average = 1
Accepted packet length average = 1
Total in-flight flits = 2 (2 measured)
latency change    = 0.0195405
throughput change = 0.0159509
Draining all recorded packets ...
Draining remaining packets ...
Time taken is 4553 cycles
Class 0:
Packet latency average = 18.3452
	minimum = 7
	maximum = 47
Network latency average = 18.3452
	minimum = 7
	maximum = 47
Slowest packet = 3047
Flit latency average = 18.3452
	minimum = 7
	maximum = 47
Slowest flit = 3047
Fragmentation average = 0
	minimum = 0
	maximum = 0
Injected packet rate average = 0.010625
	minimum = 0.002 (at node 3)
	maximum = 0.016 (at node 4)
Accepted packet rate average = 0.0105
	minimum = 0.002 (at node 12)
	maximum = 0.016 (at node 1)
Injected flit rate average = 0.010625
	minimum = 0.002 (at node 3)
	maximum = 0.016 (at node 4)
Accepted flit rate average= 0.0105
	minimum = 0.002 (at node 12)
	maximum = 0.016 (at node 1)
Injected packet length average = 1
Accepted packet length average = 1
Total in-flight flits = 1 (0 measured)
latency change    = 1
throughput change = 1
Class 0:
Packet latency average = 19.0741
	minimum = 7
	maximum = 49
Network latency average = 19.0741
	minimum = 7
	maximum = 49
Slowest packet = 3146
Flit latency average = 19.0741
	minimum = 7
	maximum = 49
Slowest flit = 3146
Fragmentation average = 0
	minimum = 0
	maximum = 0
Injected packet rate average = 0.010375
	minimum = 0.002 (at node 3)
	maximum = 0.019 (at node 4)
Accepted packet rate average = 0.010125
	minimum = 0.002 (at node 12)
	maximum = 0.019 (at node 1)
Injected flit rate average = 0.010375
	minimum = 0.002 (at node 3)
	maximum = 0.019 (at node 4)
Accepted flit rate average= 0.010125
	minimum = 0.002 (at node 12)
	maximum = 0.019 (at node 1)
Injected packet length average = 1
Accepted packet length average = 1
Total in-flight flits = 4 (0 measured)
latency change    = 0.0382108
throughput change = 0.037037
Class 0:
Packet latency average = 19.9767
	minimum = 7
	maximum = 50
Network latency average = 19.9767
	minimum = 7
	maximum = 50
Slowest packet = 3237
Flit latency average = 19.9767
	minimum = 7
	maximum = 50
Slowest flit = 3237
Fragmentation average = 0
	minimum = 0
	maximum = 0
Injected packet rate average = 0.0105
	minimum = 0 (at node 0)
	maximum = 0.016 (at node 4)
Accepted packet rate average = 0.01075
	minimum = 0 (at node 0)
	maximum = 0.018 (at node 5)
Injected flit rate average = 0.0105
	minimum = 0 (at node 0)
	maximum = 0.016 (at node 4)
Accepted flit rate average= 0.01075
	minimum = 0 (at node 0)
	maximum = 0.018 (at node 5)
Injected packet length average = 1
Accepted packet length average = 1
Total in-flight flits = 2 (0 measured)
latency change    = 0.045186
throughput change = 0.0581395
Warmed up ...Time used is 1500 cycles
Class 0:
Packet latency average = 22
	minimum = 7
	maximum = 49
Network latency average = 22
	minimum = 7
	maximum = 49
Slowest packet = 3261
Flit latency average = 22
	minimum = 7
	maximum = 49
Slowest flit = 3261
Fragmentation average = 0
	minimum = 0
	maximum = 0
Injected packet rate average = 0.0085
	minimum = 0.004 (at node 4)
	maximum = 0.016 (at node 13)
Accepted packet rate average = 0.008
	minimum = 0.004 (at node 1)
	maximum = 0.014 (at node 13)
Injected flit rate average = 0.0085
	minimum = 0.004 (at node 4)
	maximum = 0.016 (at node 13)
Accepted flit rate average= 0.008
	minimum = 0.004 (at node 1)
	maximum = 0.014 (at node 13)
Injected packet length average = 1
Accepted packet length average = 1
Total in-flight flits = 6 (6 measured)
latency change    = 0.0919662
throughput change = 0.34375
Class 0:
Packet latency average = 22.1523
	minimum = 7
	maximum = 59
Network latency average = 22.1523
	minimum = 7
	maximum = 59
Slowest packet = 3317
Flit latency average = 22.1503
	minimum = 7
	maximum = 59
Slowest flit = 3317
Fragmentation average = 0
	minimum = 0
	maximum = 0
Injected packet rate average = 0.00975
	minimum = 0.004 (at node 6)
	maximum = 0.017 (at node 13)
Accepted packet rate average = 0.0095625
	minimum = 0.004 (at node 9)
	maximum = 0.017 (at node 7)
Injected flit rate average = 0.00975
	minimum = 0.004 (at node 6)
	maximum = 0.017 (at node 13)
Accepted flit rate average= 0.0095625
	minimum = 0.004 (at node 9)
	maximum = 0.017 (at node 7)
Injected packet length average = 1
Accepted packet length average = 1
Total in-flight flits = 5 (5 measured)
latency change    = 0.00687593
throughput change = 0.163399
Class 0:
Packet latency average = 22.6777
	minimum = 7
	maximum = 61
Network latency average = 22.6777
	minimum = 7
	maximum = 61
Slowest packet = 3398
Flit latency average = 22.6721
	minimum = 7
	maximum = 61
Slowest flit = 3398
Fragmentation average = 0
	minimum = 0
	maximum = 0
Injected packet rate average = 0.01025
	minimum = 0.00666667 (at node 0)
	maximum = 0.018 (at node 13)
Accepted packet rate average = 0.0101667
	minimum = 0.00666667 (at node 0)
	maximum = 0.0173333 (at node 7)
Injected flit rate average = 0.01025
	minimum = 0.00666667 (at node 0)
	maximum = 0.018 (at node 13)
Accepted flit rate average= 0.0101667
	minimum = 0.00666667 (at node 0)
	maximum = 0.0173333 (at node 7)
Injected packet length average = 1
Accepted packet length average = 1
Total in-flight flits = 4 (4 measured)
latency change    = 0.0231667
throughput change = 0.0594262
Class 0:
Packet latency average = 22.35
	minimum = 7
	maximum = 61
Network latency average = 22.35
	minimum = 7
	maximum = 61
Slowest packet = 3398
Flit latency average = 22.3478
	minimum = 7
	maximum = 61
Slowest flit = 3398
Fragmentation average = 0
	minimum = 0
	maximum = 0
Injected packet rate average = 0.0100625
	minimum = 0.0065 (at node 14)
	maximum = 0.0145 (at node 13)
Accepted packet rate average = 0.0100625
	minimum = 0.0065 (at node 11)
	maximum = 0.0145 (at node 7)
Injected flit rate average = 0.0100625
	minimum = 0.0065 (at node 14)
	maximum = 0.0145 (at node 13)
Accepted flit rate average= 0.0100625
	minimum = 0.0065 (at node 11)
	maximum = 0.0145 (at node 7)
Injected packet length average = 1
Accepted packet length average = 1
Total in-flight flits = 2 (2 measured)
latency change    = 0.0146616
throughput change = 0.010352
Class 0:
Packet latency average = 21.9213
	minimum = 7
	maximum = 61
Network latency average = 21.9213
	minimum = 7
	maximum = 61
Slowest packet = 3398
Flit latency average = 21.9217
	minimum = 7
	maximum = 61
Slowest flit = 3398
Fragmentation average = 0
	minimum = 0
	maximum = 0
Injected packet rate average = 0.009975
	minimum = 0.0064 (at node 14)
	maximum = 0.0124 (at node 13)
Accepted packet rate average = 0.0099
	minimum = 0.0056 (at node 11)
	maximum = 0.0124 (at node 7)
Injected flit rate average = 0.009975
	minimum = 0.0064 (at node 14)
	maximum = 0.0124 (at node 13)
Accepted flit rate average= 0.0099
	minimum = 0.0056 (at node 11)
	maximum = 0.0124 (at node 7)
Injected packet length average = 1
Accepted packet length average = 1
Total in-flight flits = 5 (5 measured)
latency change    = 0.0195554
throughput change = 0.0164141
Class 0:
Packet latency average = 21.7443
	minimum = 7
	maximum = 61
Network latency average = 21.7443
	minimum = 7
	maximum = 61
Slowest packet = 3398
Flit latency average = 21.7454
	minimum = 7
	maximum = 61
Slowest flit = 3398
Fragmentation average = 0
	minimum = 0
	maximum = 0
Injected packet rate average = 0.0101458
	minimum = 0.007 (at node 14)
	maximum = 0.0126667 (at node 13)
Accepted packet rate average = 0.0101458
	minimum = 0.007 (at node 11)
	maximum = 0.0126667 (at node 7)
Injected flit rate average = 0.0101458
	minimum = 0.007 (at node 14)
	maximum = 0.0126667 (at node 13)
Accepted flit rate average= 0.0101458
	minimum = 0.007 (at node 11)
	maximum = 0.0126667 (at node 7)
Injected packet length average = 1
Accepted packet length average = 1
Total in-flight flits = 2 (2 measured)
latency change    = 0.00813959
throughput change = 0.02423
Draining all recorded packets ...
Draining remaining packets ...
Time taken is 4537 cycles
Class 0:
Packet latency average = 22.8356
	minimum = 7
	maximum = 47
Network latency average = 22.8356
	minimum = 7
	maximum = 47
Slowest packet = 3755
Flit latency average = 22.8356
	minimum = 7
	maximum = 47
Slowest flit = 3755
Fragmentation average = 0
	minimum = 0
	maximum = 0
Injected packet rate average = 0.00975
	minimum = 0.004 (at node 9)
	maximum = 0.014 (at node 1)
Accepted packet rate average = 0.009125
	minimum = 0.004 (at node 6)
	maximum = 0.014 (at node 2)
Injected flit rate average = 0.00975
	minimum = 0.004 (at node 9)
	maximum = 0.014 (at node 1)
Accepted flit rate average= 0.009125
	minimum = 0.004 (at node 6)
	maximum = 0.014 (at node 2)
Injected packet length average = 1
Accepted packet length average = 1
Total in-flight flits = 5 (0 measured)
latency change    = 1
throughput change = 1
Class 0:
Packet latency average = 21.543
	minimum = 7
	maximum = 47
Network latency average = 21.543
	minimum = 7
	maximum = 47
Slowest packet = 3755
Flit latency average = 21.543
	minimum = 7
	maximum = 47
Slowest flit = 3755
Fragmentation average = 0
	minimum = 0
	maximum = 0
Injected packet rate average = 0.0096875
	minimum = 0.003 (at node 9)
	maximum = 0.016 (at node 1)
Accepted packet rate average = 0.0094375
	minimum = 0.003 (at node 6)
	maximum = 0.016 (at node 4)
Injected flit rate average = 0.0096875
	minimum = 0.003 (at node 9)
	maximum = 0.016 (at node 1)
Accepted flit rate average= 0.0094375
	minimum = 0.003 (at node 6)
	maximum = 0.016 (at node 4)
Injected packet length average = 1
Accepted packet length average = 1
Total in-flight flits = 4 (0 measured)
latency change    = 0.0599994
throughput change = 0.0331126
Class 0:
Packet latency average = 19.9028
	minimum = 7
	maximum = 58
Network latency average = 19.9028
	minimum = 7
	maximum = 58
Slowest packet = 3918
Flit latency average = 19.9028
	minimum = 7
	maximum = 58
Slowest flit = 3918
Fragmentation average = 0
	minimum = 0
	maximum = 0
Injected packet rate average = 0.008875
	minimum = 0.004 (at node 8)
	maximum = 0.016 (at node 5)
Accepted packet rate average = 0.009
	minimum = 0.004 (at node 2)
	maximum = 0.016 (at node 5)
Injected flit rate average = 0.008875
	minimum = 0.004 (at node 8)
	maximum = 0.016 (at node 5)
Accepted flit rate average= 0.009
	minimum = 0.004 (at node 2)
	maximum = 0.016 (at node 5)
Injected packet length average = 1
Accepted packet length average = 1
Total in-flight flits = 3 (0 measured)
latency change    = 0.0824141
throughput change = 0.0486111
Warmed up ...Time used is 1500 cycles
Class 0:
Packet latency average = 20.5077
	minimum = 7
	maximum = 47
Network latency average = 20.5077
	minimum = 7
	maximum = 47
Slowest packet = 3983
Flit latency average = 21.3824
	minimum = 7
	maximum = 47
Slowest flit = 3970
Fragmentation average = 0
	minimum = 0
	maximum = 0
Injected packet rate average = 0.008875
	minimum = 0.002 (at node 4)
	maximum = 0.018 (at node 10)
Accepted packet rate average = 0.0085
	minimum = 0.002 (at node 1)
	maximum = 0.018 (at node 10)
Injected flit rate average = 0.008875
	minimum = 0.002 (at node 4)
	maximum = 0.018 (at node 10)
Accepted flit rate average= 0.0085
	minimum = 0.002 (at node 1)
	maximum = 0.018 (at node 10)
Injected packet length average = 1
Accepted packet length average = 1
Total in-flight flits = 6 (6 measured)
latency change    = 0.029497
throughput change = 0.0588235
Class 0:
Packet latency average = 21.0935
	minimum = 7
	maximum = 47
Network latency average = 21.0935
	minimum = 7
	maximum = 47
Slowest packet = 3983
Flit latency average = 21.5
	minimum = 7
	maximum = 47
Slowest flit = 3970
Fragmentation average = 0
	minimum = 0
	maximum = 0
Injected packet rate average = 0.0090625
	minimum = 0.005 (at node 4)
	maximum = 0.017 (at node 10)
Accepted packet rate average = 0.008875
	minimum = 0.005 (at node 1)
	maximum = 0.017 (at node 10)
Injected flit rate average = 0.0090625
	minimum = 0.005 (at node 4)
	maximum = 0.017 (at node 10)
Accepted flit rate average= 0.008875
	minimum = 0.005 (at node 1)
	maximum = 0.017 (at node 10)
Injected packet length average = 1
Accepted packet length average = 1
Total in-flight flits = 6 (6 measured)
latency change    = 0.0277731
throughput change = 0.0422535
Class 0:
Packet latency average = 21.3025
	minimum = 7
	maximum = 54
Network latency average = 21.3025
	minimum = 7
	maximum = 54
Slowest packet = 4135
Flit latency average = 21.5394
	minimum = 7
	maximum = 54
Slowest flit = 4135
Fragmentation average = 0
	minimum = 0
	maximum = 0
Injected packet rate average = 0.0100833
	minimum = 0.00666667 (at node 15)
	maximum = 0.016 (at node 10)
Accepted packet rate average = 0.0100417
	minimum = 0.00666667 (at node 15)
	maximum = 0.016 (at node 10)
Injected flit rate average = 0.0100833
	minimum = 0.00666667 (at node 15)
	maximum = 0.016 (at node 10)
Accepted flit rate average= 0.0100417
	minimum = 0.00666667 (at node 15)
	maximum = 0.016 (at node 10)
Injected packet length average = 1
Accepted packet length average = 1
Total in-flight flits = 4 (4 measured)
latency change    = 0.00981085
throughput change = 0.116183
Class 0:
Packet latency average = 22.1713
	minimum = 7
	maximum = 58
Network latency average = 22.1713
	minimum = 7
	maximum = 58
Slowest packet = 4238
Flit latency average = 22.3364
	minimum = 7
	maximum = 58
Slowest flit = 4238
Fragmentation average = 0
	minimum = 0
	maximum = 0
Injected packet rate average = 0.0103125
	minimum = 0.0065 (at node 15)
	maximum = 0.0165 (at node 7)
Accepted packet rate average = 0.0103125
	minimum = 0.0065 (at node 15)
	maximum = 0.0165 (at node 12)
Injected flit rate average = 0.0103125
	minimum = 0.0065 (at node 15)
	maximum = 0.0165 (at node 7)
Accepted flit rate average= 0.0103125
	minimum = 0.0065 (at node 15)
	maximum = 0.0165 (at node 12)
Injected packet length average = 1
Accepted packet length average = 1
Total in-flight flits = 3 (3 measured)
latency change    = 0.0391828
throughput change = 0.0262626
Class 0:
Packet latency average = 21.7796
	minimum = 7
	maximum = 58
Network latency average = 21.7796
	minimum = 7
	maximum = 58
Slowest packet = 4238
Flit latency average = 21.9106
	minimum = 7
	maximum = 58
Slowest flit = 4238
Fragmentation average = 0
	minimum = 0
	maximum = 0
Injected packet rate average = 0.010575
	minimum = 0.0072 (at node 4)
	maximum = 0.016 (at node 7)
Accepted packet rate average = 0.010625
	minimum = 0.0072 (at node 1)
	maximum = 0.016 (at node 13)
Injected flit rate average = 0.010575
	minimum = 0.0072 (at node 4)
	maximum = 0.016 (at node 7)
Accepted flit rate average= 0.010625
	minimum = 0.0072 (at node 1)
	maximum = 0.016 (at node 13)
Injected packet length average = 1
Accepted packet length average = 1
Total in-flight flits = 1 (1 measured)
latency change    = 0.0179816
throughput change = 0.0294118
Class 0:
Packet latency average = 21.978
	minimum = 7
	maximum = 58
Network latency average = 21.978
	minimum = 7
	maximum = 58
Slowest packet = 4238
Flit latency average = 22.0875
	minimum = 7
	maximum = 58
Slowest flit = 4238
Fragmentation average = 0
	minimum = 0
	maximum = 0
Injected packet rate average = 0.0104583
	minimum = 0.007 (at node 0)
	maximum = 0.0156667 (at node 7)
Accepted packet rate average = 0.0104792
	minimum = 0.007 (at node 0)
	maximum = 0.0156667 (at node 13)
Injected flit rate average = 0.0104583
	minimum = 0.007 (at node 0)
	maximum = 0.0156667 (at node 7)
Accepted flit rate average= 0.0104792
	minimum = 0.007 (at node 0)
	maximum = 0.0156667 (at node 13)
Injected packet length average = 1
Accepted packet length average = 1
Total in-flight flits = 2 (2 measured)
latency change    = 0.00902626
throughput change = 0.0139165
Draining all recorded packets ...
Draining remaining packets ...
Time taken is 4556 cycles
Class 0:
Packet latency average = 19.7222
	minimum = 7
	maximum = 47
Network latency average = 19.7222
	minimum = 7
	maximum = 47
Slowest packet = 4484
Flit latency average = 19.7222
	minimum = 7
	maximum = 47
Slowest flit = 4484
Fragmentation average = 0
	minimum = 0
	maximum = 0
Injected packet rate average = 0.00975
	minimum = 0.004 (at node 13)
	maximum = 0.014 (at node 1)
Accepted packet rate average = 0.009
	minimum = 0.004 (at node 7)
	maximum = 0.014 (at node 4)
Injected flit rate average = 0.00975
	minimum = 0.004 (at node 13)
	maximum = 0.014 (at node 1)
Accepted flit rate average= 0.009
	minimum = 0.004 (at node 7)
	maximum = 0.014 (at node 4)
Injected packet length average = 1
Accepted packet length average = 1
Total in-flight flits = 6 (0 measured)
latency change    = 1
throughput change = 1
Class 0:
Packet latency average = 21.9933
	minimum = 7
	maximum = 50
Network latency average = 21.9933
	minimum = 7
	maximum = 50
Slowest packet = 4555
Flit latency average = 21.9933
	minimum = 7
	maximum = 50
Slowest flit = 4555
Fragmentation average = 0
	minimum = 0
	maximum = 0
Injected packet rate average = 0.0095625
	minimum = 0.003 (at node 5)
	maximum = 0.016 (at node 9)
Accepted packet rate average = 0.009375
	minimum = 0.003 (at node 5)
	maximum = 0.016 (at node 6)
Injected flit rate average = 0.0095625
	minimum = 0.003 (at node 5)
	maximum = 0.016 (at node 9)
Accepted flit rate average= 0.009375
	minimum = 0.003 (at node 5)
	maximum = 0.016 (at node 6)
Injected packet length average = 1
Accepted packet length average = 1
Total in-flight flits = 3 (0 measured)
latency change    = 0.103264
throughput change = 0.04
Class 0:
Packet latency average = 18.407
	minimum = 7
	maximum = 47
Network latency average = 18.407
	minimum = 7
	maximum = 47
Slowest packet = 4625
Flit latency average = 18.407
	minimum = 7
	maximum = 47
Slowest flit = 4625
Fragmentation average = 0
	minimum = 0
	maximum = 0
Injected packet rate average = 0.01125
	minimum = 0.002 (at node 3)
	maximum = 0.02 (at node 11)
Accepted packet rate average = 0.01075
	minimum = 0.004 (at node 1)
	maximum = 0.02 (at node 9)
Injected flit rate average = 0.01125
	minimum = 0.002 (at node 3)
	maximum = 0.02 (at node 11)
Accepted flit rate average= 0.01075
	minimum = 0.004 (at node 1)
	maximum = 0.02 (at node 9)
Injected packet length average = 1
Accepted packet length average = 1
Total in-flight flits = 7 (0 measured)
latency change    = 0.194837
throughput change = 0.127907
Warmed up ...Time used is 1500 cycles
Class 0:
Packet latency average = 23.0864
	minimum = 7
	maximum = 56
Network latency average = 23.0864
	minimum = 7
	maximum = 56
Slowest packet = 4724
Flit latency average = 23.3182
	minimum = 7
	maximum = 56
Slowest flit = 4724
Fragmentation average = 0
	minimum = 0
	maximum = 0
Injected packet rate average = 0.01075
	minimum = 0.004 (at node 6)
	maximum = 0.018 (at node 3)
Accepted packet rate average = 0.011
	minimum = 0.004 (at node 9)
	maximum = 0.016 (at node 11)
Injected flit rate average = 0.01075
	minimum = 0.004 (at node 6)
	maximum = 0.018 (at node 3)
Accepted flit rate average= 0.011
	minimum = 0.004 (at node 9)
	maximum = 0.016 (at node 11)
Injected packet length average = 1
Accepted packet length average = 1
Total in-flight flits = 5 (5 measured)
latency change    = 0.202692
throughput change = 0.0227273
Class 0:
Packet latency average = 22.1082
	minimum = 7
	maximum = 59
Network latency average = 22.1082
	minimum = 7
	maximum = 59
Slowest packet = 4814
Flit latency average = 22.2438
	minimum = 7
	maximum = 59
Slowest flit = 4814
Fragmentation average = 0
	minimum = 0
	maximum = 0
Injected packet rate average = 0.0123125
	minimum = 0.009 (at node 1)
	maximum = 0.018 (at node 8)
Accepted packet rate average = 0.0125625
	minimum = 0.009 (at node 1)
	maximum = 0.018 (at node 0)
Injected flit rate average = 0.0123125
	minimum = 0.009 (at node 1)
	maximum = 0.018 (at node 8)
Accepted flit rate average= 0.0125625
	minimum = 0.009 (at node 1)
	maximum = 0.018 (at node 0)
Injected packet length average = 1
Accepted packet length average = 1
Total in-flight flits = 3 (3 measured)
latency change    = 0.0442447
throughput change = 0.124378
Class 0:
Packet latency average = 21.9857
	minimum = 7
	maximum = 59
Network latency average = 21.9857
	minimum = 7
	maximum = 59
Slowest packet = 4814
Flit latency average = 22.0839
	minimum = 7
	maximum = 59
Slowest flit = 4814
Fragmentation average = 0
	minimum = 0
	maximum = 0
Injected packet rate average = 0.0117083
	minimum = 0.00866667 (at node 1)
	maximum = 0.0153333 (at node 8)
Accepted packet rate average = 0.0119167
	minimum = 0.00866667 (at node 4)
	maximum = 0.0153333 (at node 2)
Injected flit rate average = 0.0117083
	minimum = 0.00866667 (at node 1)
	maximum = 0.0153333 (at node 8)
Accepted flit rate average= 0.0119167
	minimum = 0.00866667 (at node 4)
	maximum = 0.0153333 (at node 2)
Injected packet length average = 1
Accepted packet length average = 1
Total in-flight flits = 2 (2 measured)
latency change    = 0.00557565
throughput change = 0.0541958
Class 0:
Packet latency average = 21.4632
	minimum = 7
	maximum = 59
Network latency average = 21.4632
	minimum = 7
	maximum = 59
Slowest packet = 4814
Flit latency average = 21.5481
	minimum = 7
	maximum = 59
Slowest flit = 4814
Fragmentation average = 0
	minimum = 0
	maximum = 0
Injected packet rate average = 0.011625
	minimum = 0.0085 (at node 5)
	maximum = 0.014 (at node 8)
Accepted packet rate average = 0.0116875
	minimum = 0.0085 (at node 5)
	maximum = 0.014 (at node 0)
Injected flit rate average = 0.011625
	minimum = 0.0085 (at node 5)
	maximum = 0.014 (at node 8)
Accepted flit rate average= 0.0116875
	minimum = 0.0085 (at node 5)
	maximum = 0.014 (at node 0)
Injected packet length average = 1
Accepted packet length average = 1
Total in-flight flits = 5 (5 measured)
latency change    = 0.0243415
throughput change = 0.0196078
Class 0:
Packet latency average = 21.2838
	minimum = 7
	maximum = 59
Network latency average = 21.2838
	minimum = 7
	maximum = 59
Slowest packet = 4814
Flit latency average = 21.3559
	minimum = 7
	maximum = 59
Slowest flit = 4814
Fragmentation average = 0
	minimum = 0
	maximum = 0
Injected packet rate average = 0.011525
	minimum = 0.0092 (at node 5)
	maximum = 0.014 (at node 3)
Accepted packet rate average = 0.01145
	minimum = 0.0088 (at node 5)
	maximum = 0.0128 (at node 2)
Injected flit rate average = 0.011525
	minimum = 0.0092 (at node 5)
	maximum = 0.014 (at node 3)
Accepted flit rate average= 0.01145
	minimum = 0.0088 (at node 5)
	maximum = 0.0128 (at node 2)
Injected packet length average = 1
Accepted packet length average = 1
Total in-flight flits = 10 (10 measured)
latency change    = 0.00842901
throughput change = 0.0207424
Class 0:
Packet latency average = 21.8293
	minimum = 7
	maximum = 59
Network latency average = 21.8293
	minimum = 7
	maximum = 59
Slowest packet = 4814
Flit latency average = 21.8833
	minimum = 7
	maximum = 59
Slowest flit = 4814
Fragmentation average = 0
	minimum = 0
	maximum = 0
Injected packet rate average = 0.0111667
	minimum = 0.008 (at node 5)
	maximum = 0.0133333 (at node 3)
Accepted packet rate average = 0.01125
	minimum = 0.008 (at node 5)
	maximum = 0.0133333 (at node 7)
Injected flit rate average = 0.0111667
	minimum = 0.008 (at node 5)
	maximum = 0.0133333 (at node 3)
Accepted flit rate average= 0.01125
	minimum = 0.008 (at node 5)
	maximum = 0.0133333 (at node 7)
Injected packet length average = 1
Accepted packet length average = 1
Total in-flight flits = 3 (3 measured)
latency change    = 0.0249873
throughput change = 0.0177778
Draining all recorded packets ...
Draining remaining packets ...
Time taken is 4545 cycles
Class 0:
Packet latency average = 21.16
	minimum = 7
	maximum = 47
Network latency average = 21.16
	minimum = 7
	maximum = 47
Slowest packet = 5271
Flit latency average = 21.16
	minimum = 7
	maximum = 47
Slowest flit = 5271
Fragmentation average = 0
	minimum = 0
	maximum = 0
Injected packet rate average = 0.01025
	minimum = 0 (at node 15)
	maximum = 0.024 (at node 6)
Accepted packet rate average = 0.009375
	minimum = 0 (at node 15)
	maximum = 0.022 (at node 9)
Injected flit rate average = 0.01025
	minimum = 0 (at node 15)
	maximum = 0.024 (at node 6)
Accepted flit rate average= 0.009375
	minimum = 0 (at node 15)
	maximum = 0.022 (at node 9)
Injected packet length average = 1
Accepted packet length average = 1
Total in-flight flits = 7 (0 measured)
latency change    = 1
throughput change = 1
Class 0:
Packet latency average = 22.5482
	minimum = 7
	maximum = 58
Network latency average = 22.5482
	minimum = 7
	maximum = 58
Slowest packet = 5364
Flit latency average = 22.5482
	minimum = 7
	maximum = 58
Slowest flit = 5364
Fragmentation average = 0
	minimum = 0
	maximum = 0
Injected packet rate average = 0.011
	minimum = 0.005 (at node 0)
	maximum = 0.016 (at node 1)
Accepted packet rate average = 0.010375
	minimum = 0.005 (at node 0)
	maximum = 0.015 (at node 2)
Injected flit rate average = 0.011
	minimum = 0.005 (at node 0)
	maximum = 0.016 (at node 1)
Accepted flit rate average= 0.010375
	minimum = 0.005 (at node 0)
	maximum = 0.015 (at node 2)
Injected packet length average = 1
Accepted packet length average = 1
Total in-flight flits = 10 (0 measured)
latency change    = 0.0615656
throughput change = 0.0963855
Class 0:
Packet latency average = 22.061
	minimum = 7
	maximum = 49
Network latency average = 22.061
	minimum = 7
	maximum = 49
Slowest packet = 5427
Flit latency average = 22.061
	minimum = 7
	maximum = 49
Slowest flit = 5427
Fragmentation average = 0
	minimum = 0
	maximum = 0
Injected packet rate average = 0.0095
	minimum = 0.002 (at node 8)
	maximum = 0.02 (at node 11)
Accepted packet rate average = 0.01025
	minimum = 0.002 (at node 10)
	maximum = 0.022 (at node 14)
Injected flit rate average = 0.0095
	minimum = 0.002 (at node 8)
	maximum = 0.02 (at node 11)
Accepted flit rate average= 0.01025
	minimum = 0.002 (at node 10)
	maximum = 0.022 (at node 14)
Injected packet length average = 1
Accepted packet length average = 1
Total in-flight flits = 4 (0 measured)
latency change    = 0.022085
throughput change = 0.0121951
Warmed up ...Time used is 1500 cycles
Class 0:
Packet latency average = 21.6163
	minimum = 7
	maximum = 56
Network latency average = 21.6163
	minimum = 7
	maximum = 56
Slowest packet = 5565
Flit latency average = 21.8556
	minimum = 7
	maximum = 56
Slowest flit = 5565
Fragmentation average = 0
	minimum = 0
	maximum = 0
Injected packet rate average = 0.01125
	minimum = 0.006 (at node 1)
	maximum = 0.018 (at node 7)
Accepted packet rate average = 0.01125
	minimum = 0.006 (at node 2)
	maximum = 0.018 (at node 11)
Injected flit rate average = 0.01125
	minimum = 0.006 (at node 1)
	maximum = 0.018 (at node 7)
Accepted flit rate average= 0.01125
	minimum = 0.006 (at node 2)
	maximum = 0.018 (at node 11)
Injected packet length average = 1
Accepted packet length average = 1
Total in-flight flits = 4 (4 measured)
latency change    = 0.0205723
throughput change = 0.0888889
Class 0:
Packet latency average = 22.3118
	minimum = 7
	maximum = 56
Network latency average = 22.3118
	minimum = 7
	maximum = 56
Slowest packet = 5565
Flit latency average = 22.4195
	minimum = 7
	maximum = 56
Slowest flit = 5565
Fragmentation average = 0
	minimum = 0
	maximum = 0
Injected packet rate average = 0.0106875
	minimum = 0.006 (at node 10)
	maximum = 0.015 (at node 3)
Accepted packet rate average = 0.010875
	minimum = 0.006 (at node 10)
	maximum = 0.016 (at node 12)
Injected flit rate average = 0.0106875
	minimum = 0.006 (at node 10)
	maximum = 0.015 (at node 3)
Accepted flit rate average= 0.010875
	minimum = 0.006 (at node 10)
	maximum = 0.016 (at node 12)
Injected packet length average = 1
Accepted packet length average = 1
Total in-flight flits = 1 (1 measured)
latency change    = 0.0311713
throughput change = 0.0344828
Class 0:
Packet latency average = 21.9789
	minimum = 7
	maximum = 56
Network latency average = 21.9789
	minimum = 7
	maximum = 56
Slowest packet = 5565
Flit latency average = 22.0622
	minimum = 7
	maximum = 56
Slowest flit = 5565
Fragmentation average = 0
	minimum = 0
	maximum = 0
Injected packet rate average = 0.00991667
	minimum = 0.006 (at node 15)
	maximum = 0.0146667 (at node 7)
Accepted packet rate average = 0.0100417
	minimum = 0.006 (at node 15)
	maximum = 0.0146667 (at node 2)
Injected flit rate average = 0.00991667
	minimum = 0.006 (at node 15)
	maximum = 0.0146667 (at node 7)
Accepted flit rate average= 0.0100417
	minimum = 0.006 (at node 15)
	maximum = 0.0146667 (at node 2)
Injected packet length average = 1
Accepted packet length average = 1
Total in-flight flits = 1 (1 measured)
latency change    = 0.0151446
throughput change = 0.0829876
Class 0:
Packet latency average = 22.0398
	minimum = 7
	maximum = 56
Network latency average = 22.0398
	minimum = 7
	maximum = 56
Slowest packet = 5565
Flit latency average = 22.0997
	minimum = 7
	maximum = 56
Slowest flit = 5565
Fragmentation average = 0
	minimum = 0
	maximum = 0
Injected packet rate average = 0.01025
	minimum = 0.007 (at node 12)
	maximum = 0.016 (at node 8)
Accepted packet rate average = 0.0103438
	minimum = 0.007 (at node 3)
	maximum = 0.016 (at node 2)
Injected flit rate average = 0.01025
	minimum = 0.007 (at node 12)
	maximum = 0.016 (at node 8)
Accepted flit rate average= 0.0103438
	minimum = 0.007 (at node 3)
	maximum = 0.016 (at node 2)
Injected packet length average = 1
Accepted packet length average = 1
Total in-flight flits = 1 (1 measured)
latency change    = 0.00276103
throughput change = 0.0292044
Class 0:
Packet latency average = 21.3137
	minimum = 7
	maximum = 56
Network latency average = 21.3137
	minimum = 7
	maximum = 56
Slowest packet = 5565
Flit latency average = 21.3689
	minimum = 7
	maximum = 56
Slowest flit = 5565
Fragmentation average = 0
	minimum = 0
	maximum = 0
Injected packet rate average = 0.010325
	minimum = 0.0076 (at node 12)
	maximum = 0.0152 (at node 8)
Accepted packet rate average = 0.0103
	minimum = 0.0076 (at node 3)
	maximum = 0.0152 (at node 2)
Injected flit rate average = 0.010325
	minimum = 0.0076 (at node 12)
	maximum = 0.0152 (at node 8)
Accepted flit rate average= 0.0103
	minimum = 0.0076 (at node 3)
	maximum = 0.0152 (at node 2)
Injected packet length average = 1
Accepted packet length average = 1
Total in-flight flits = 5 (5 measured)
latency change    = 0.034064
throughput change = 0.00424757
Class 0:
Packet latency average = 20.9079
	minimum = 7
	maximum = 56
Network latency average = 20.9079
	minimum = 7
	maximum = 56
Slowest packet = 5565
Flit latency average = 20.9585
	minimum = 7
	maximum = 56
Slowest flit = 5565
Fragmentation average = 0
	minimum = 0
	maximum = 0
Injected packet rate average = 0.0100208
	minimum = 0.007 (at node 12)
	maximum = 0.0136667 (at node 8)
Accepted packet rate average = 0.0100417
	minimum = 0.007 (at node 3)
	maximum = 0.0136667 (at node 2)
Injected flit rate average = 0.0100208
	minimum = 0.007 (at node 12)
	maximum = 0.0136667 (at node 8)
Accepted flit rate average= 0.0100417
	minimum = 0.007 (at node 3)
	maximum = 0.0136667 (at node 2)
Injected packet length average = 1
Accepted packet length average = 1
Total in-flight flits = 3 (3 measured)
latency change    = 0.0194077
throughput change = 0.0257261
Draining all recorded packets ...
Draining remaining packets ...
Time taken is 4542 cycles
Class 0:
Packet latency average = 21.7581
	minimum = 7
	maximum = 54
Network latency average = 21.7581
	minimum = 7
	maximum = 54
Slowest packet = 6041
Flit latency average = 21.7581
	minimum = 7
	maximum = 54
Slowest flit = 6041
Fragmentation average = 0
	minimum = 0
	maximum = 0
Injected packet rate average = 0.008375
	minimum = 0.002 (at node 8)
	maximum = 0.02 (at node 1)
Accepted packet rate average = 0.00775
	minimum = 0 (at node 12)
	maximum = 0.02 (at node 8)
Injected flit rate average = 0.008375
	minimum = 0.002 (at node 8)
	maximum = 0.02 (at node 1)
Accepted flit rate average= 0.00775
	minimum = 0 (at node 12)
	maximum = 0.02 (at node 8)
Injected packet length average = 1
Accepted packet length average = 1
Total in-flight flits = 5 (0 measured)
latency change    = 1
throughput change = 1
Class 0:
Packet latency average = 20.331
	minimum = 7
	maximum = 60
Network latency average = 20.331
	minimum = 7
	maximum = 60
Slowest packet = 6056
Flit latency average = 20.331
	minimum = 7
	maximum = 60
Slowest flit = 6056
Fragmentation average = 0
	minimum = 0
	maximum = 0
Injected packet rate average = 0.00925
	minimum = 0.006 (at node 4)
	maximum = 0.017 (at node 1)
Accepted packet rate average = 0.008875
	minimum = 0.006 (at node 1)
	maximum = 0.017 (at node 4)
Injected flit rate average = 0.00925
	minimum = 0.006 (at node 4)
	maximum = 0.017 (at node 1)
Accepted flit rate average= 0.008875
	minimum = 0.006 (at node 1)
	maximum = 0.017 (at node 4)
Injected packet length average = 1
Accepted packet length average = 1
Total in-flight flits = 6 (0 measured)
latency change    = 0.0701923
throughput change = 0.126761
Class 0:
Packet latency average = 21.6444
	minimum = 7
	maximum = 54
Network latency average = 21.6444
	minimum = 7
	maximum = 54
Slowest packet = 6163
Flit latency average = 21.6444
	minimum = 7
	maximum = 54
Slowest flit = 6163
Fragmentation average = 0
	minimum = 0
	maximum = 0
Injected packet rate average = 0.010875
	minimum = 0.006 (at node 2)
	maximum = 0.018 (at node 7)
Accepted packet rate average = 0.01125
	minimum = 0.006 (at node 5)
	maximum = 0.022 (at node 13)
Injected flit rate average = 0.010875
	minimum = 0.006 (at node 2)
	maximum = 0.018 (at node 7)
Accepted flit rate average= 0.01125
	minimum = 0.006 (at node 5)
	maximum = 0.022 (at node 13)
Injected packet length average = 1
Accepted packet length average = 1
Total in-flight flits = 3 (0 measured)
latency change    = 0.0606834
throughput change = 0.211111
Warmed up ...Time used is 1500 cycles
Class 0:
Packet latency average = 19.1216
	minimum = 7
	maximum = 52
Network latency average = 19.1216
	minimum = 7
	maximum = 52
Slowest packet = 6261
Flit latency average = 19.9481
	minimum = 7
	maximum = 52
Slowest flit = 6261
Fragmentation average = 0
	minimum = 0
	maximum = 0
Injected packet rate average = 0.01
	minimum = 0.006 (at node 2)
	maximum = 0.022 (at node 11)
Accepted packet rate average = 0.009625
	minimum = 0.002 (at node 8)
	maximum = 0.022 (at node 14)
Injected flit rate average = 0.01
	minimum = 0.006 (at node 2)
	maximum = 0.022 (at node 11)
Accepted flit rate average= 0.009625
	minimum = 0.002 (at node 8)
	maximum = 0.022 (at node 14)
Injected packet length average = 1
Accepted packet length average = 1
Total in-flight flits = 6 (6 measured)
latency change    = 0.131936
throughput change = 0.168831
Class 0:
Packet latency average = 19.9803
	minimum = 7
	maximum = 52
Network latency average = 19.9803
	minimum = 7
	maximum = 52
Slowest packet = 6261
Flit latency average = 20.3742
	minimum = 7
	maximum = 52
Slowest flit = 6261
Fragmentation average = 0
	minimum = 0
	maximum = 0
Injected packet rate average = 0.0096875
	minimum = 0.006 (at node 2)
	maximum = 0.014 (at node 11)
Accepted packet rate average = 0.0096875
	minimum = 0.006 (at node 8)
	maximum = 0.013 (at node 14)
Injected flit rate average = 0.0096875
	minimum = 0.006 (at node 2)
	maximum = 0.014 (at node 11)
Accepted flit rate average= 0.0096875
	minimum = 0.006 (at node 8)
	maximum = 0.013 (at node 14)
Injected packet length average = 1
Accepted packet length average = 1
Total in-flight flits = 3 (3 measured)
latency change    = 0.0429745
throughput change = 0.00645161
Class 0:
Packet latency average = 19.9906
	minimum = 7
	maximum = 52
Network latency average = 19.9906
	minimum = 7
	maximum = 52
Slowest packet = 6261
Flit latency average = 20.2744
	minimum = 7
	maximum = 52
Slowest flit = 6261
Fragmentation average = 0
	minimum = 0
	maximum = 0
Injected packet rate average = 0.008875
	minimum = 0.004 (at node 13)
	maximum = 0.014 (at node 11)
Accepted packet rate average = 0.00895833
	minimum = 0.00466667 (at node 7)
	maximum = 0.014 (at node 14)
Injected flit rate average = 0.008875
	minimum = 0.004 (at node 13)
	maximum = 0.014 (at node 11)
Accepted flit rate average= 0.00895833
	minimum = 0.00466667 (at node 7)
	maximum = 0.014 (at node 14)
Injected packet length average = 1
Accepted packet length average = 1
Total in-flight flits = 1 (1 measured)
latency change    = 0.000515387
throughput change = 0.0813953
Class 0:
Packet latency average = 19.4965
	minimum = 7
	maximum = 52
Network latency average = 19.4965
	minimum = 7
	maximum = 52
Slowest packet = 6261
Flit latency average = 19.7128
	minimum = 7
	maximum = 52
Slowest flit = 6261
Fragmentation average = 0
	minimum = 0
	maximum = 0
Injected packet rate average = 0.00909375
	minimum = 0.0065 (at node 7)
	maximum = 0.014 (at node 0)
Accepted packet rate average = 0.00903125
	minimum = 0.0065 (at node 13)
	maximum = 0.014 (at node 0)
Injected flit rate average = 0.00909375
	minimum = 0.0065 (at node 7)
	maximum = 0.014 (at node 0)
Accepted flit rate average= 0.00903125
	minimum = 0.0065 (at node 13)
	maximum = 0.014 (at node 0)
Injected packet length average = 1
Accepted packet length average = 1
Total in-flight flits = 5 (5 measured)
latency change    = 0.0253411
throughput change = 0.00807382
Class 0:
Packet latency average = 20.4182
	minimum = 7
	maximum = 70
Network latency average = 20.4182
	minimum = 7
	maximum = 70
Slowest packet = 6525
Flit latency average = 20.5771
	minimum = 7
	maximum = 70
Slowest flit = 6525
Fragmentation average = 0
	minimum = 0
	maximum = 0
Injected packet rate average = 0.0094
	minimum = 0.0064 (at node 13)
	maximum = 0.012 (at node 1)
Accepted packet rate average = 0.0094
	minimum = 0.0064 (at node 13)
	maximum = 0.012 (at node 4)
Injected flit rate average = 0.0094
	minimum = 0.0064 (at node 13)
	maximum = 0.012 (at node 1)
Accepted flit rate average= 0.0094
	minimum = 0.0064 (at node 13)
	maximum = 0.012 (at node 4)
Injected packet length average = 1
Accepted packet length average = 1
Total in-flight flits = 3 (3 measured)
latency change    = 0.0451424
throughput change = 0.0392287
Class 0:
Packet latency average = 20.1038
	minimum = 7
	maximum = 70
Network latency average = 20.1038
	minimum = 7
	maximum = 70
Slowest packet = 6525
Flit latency average = 20.2368
	minimum = 7
	maximum = 70
Slowest flit = 6525
Fragmentation average = 0
	minimum = 0
	maximum = 0
Injected packet rate average = 0.00952083
	minimum = 0.00633333 (at node 7)
	maximum = 0.0126667 (at node 0)
Accepted packet rate average = 0.0095
	minimum = 0.00633333 (at node 13)
	maximum = 0.0126667 (at node 0)
Injected flit rate average = 0.00952083
	minimum = 0.00633333 (at node 7)
	maximum = 0.0126667 (at node 0)
Accepted flit rate average= 0.0095
	minimum = 0.00633333 (at node 13)
	maximum = 0.0126667 (at node 0)
Injected packet length average = 1
Accepted packet length average = 1
Total in-flight flits = 4 (4 measured)
latency change    = 0.0156427
throughput change = 0.0105263
Draining all recorded packets ...
Draining remaining packets ...
Time taken is 4556 cycles
Class 0:
Packet latency average = 21.2955
	minimum = 7
	maximum = 57
Network latency average = 21.2955
	minimum = 7
	maximum = 57
Slowest packet = 6728
Flit latency average = 21.2955
	minimum = 7
	maximum = 57
Slowest flit = 6728
Fragmentation average = 0
	minimum = 0
	maximum = 0
Injected packet rate average = 0.011375
	minimum = 0.008 (at node 1)
	maximum = 0.02 (at node 4)
Accepted packet rate average = 0.011
	minimum = 0.006 (at node 6)
	maximum = 0.02 (at node 1)
Injected flit rate average = 0.011375
	minimum = 0.008 (at node 1)
	maximum = 0.02 (at node 4)
Accepted flit rate average= 0.011
	minimum = 0.006 (at node 6)
	maximum = 0.02 (at node 1)
Injected packet length average = 1
Accepted packet length average = 1
Total in-flight flits = 3 (0 measured)
latency change    = 1
throughput change = 1
Class 0:
Packet latency average = 20.858
	minimum = 7
	maximum = 57
Network latency average = 20.858
	minimum = 7
	maximum = 57
Slowest packet = 6728
Flit latency average = 20.858
	minimum = 7
	maximum = 57
Slowest flit = 6728
Fragmentation average = 0
	minimum = 0
	maximum = 0
Injected packet rate average = 0.010375
	minimum = 0.007 (at node 14)
	maximum = 0.017 (at node 8)
Accepted packet rate average = 0.010125
	minimum = 0.007 (at node 7)
	maximum = 0.016 (at node 1)
Injected flit rate average = 0.010375
	minimum = 0.007 (at node 14)
	maximum = 0.017 (at node 8)
Accepted flit rate average= 0.010125
	minimum = 0.007 (at node 7)
	maximum = 0.016 (at node 1)
Injected packet length average = 1
Accepted packet length average = 1
Total in-flight flits = 4 (0 measured)
latency change    = 0.0209718
throughput change = 0.0864198
Class 0:
Packet latency average = 21.8659
	minimum = 7
	maximum = 56
Network latency average = 21.8659
	minimum = 7
	maximum = 56
Slowest packet = 6903
Flit latency average = 21.8659
	minimum = 7
	maximum = 56
Slowest flit = 6903
Fragmentation average = 0
	minimum = 0
	maximum = 0
Injected packet rate average = 0.010625
	minimum = 0.004 (at node 12)
	maximum = 0.018 (at node 2)
Accepted packet rate average = 0.01025
	minimum = 0.004 (at node 11)
	maximum = 0.018 (at node 2)
Injected flit rate average = 0.010625
	minimum = 0.004 (at node 12)
	maximum = 0.018 (at node 2)
Accepted flit rate average= 0.01025
	minimum = 0.004 (at node 11)
	maximum = 0.018 (at node 2)
Injected packet length average = 1
Accepted packet length average = 1
Total in-flight flits = 7 (0 measured)
latency change    = 0.0460915
throughput change = 0.0121951
Warmed up ...Time used is 1500 cycles
Class 0:
Packet latency average = 21.1209
	minimum = 7
	maximum = 50
Network latency average = 21.1209
	minimum = 7
	maximum = 50
Slowest packet = 7013
Flit latency average = 21.4898
	minimum = 7
	maximum = 52
Slowest flit = 6940
Fragmentation average = 0
	minimum = 0
	maximum = 0
Injected packet rate average = 0.011875
	minimum = 0.006 (at node 6)
	maximum = 0.018 (at node 11)
Accepted packet rate average = 0.01225
	minimum = 0.006 (at node 9)
	maximum = 0.018 (at node 14)
Injected flit rate average = 0.011875
	minimum = 0.006 (at node 6)
	maximum = 0.018 (at node 11)
Accepted flit rate average= 0.01225
	minimum = 0.006 (at node 9)
	maximum = 0.018 (at node 14)
Injected packet length average = 1
Accepted packet length average = 1
Total in-flight flits = 4 (4 measured)
latency change    = 0.0352719
throughput change = 0.163265
Class 0:
Packet latency average = 21.2262
	minimum = 7
	maximum = 53
Network latency average = 21.2262
	minimum = 7
	maximum = 53
Slowest packet = 7093
Flit latency average = 21.4286
	minimum = 7
	maximum = 53
Slowest flit = 7093
Fragmentation average = 0
	minimum = 0
	maximum = 0
Injected packet rate average = 0.01075
	minimum = 0.007 (at node 6)
	maximum = 0.015 (at node 3)
Accepted packet rate average = 0.0109375
	minimum = 0.007 (at node 4)
	maximum = 0.015 (at node 12)
Injected flit rate average = 0.01075
	minimum = 0.007 (at node 6)
	maximum = 0.015 (at node 3)
Accepted flit rate average= 0.0109375
	minimum = 0.007 (at node 4)
	maximum = 0.015 (at node 12)
Injected packet length average = 1
Accepted packet length average = 1
Total in-flight flits = 4 (4 measured)
latency change    = 0.00496139
throughput change = 0.12
Class 0:
Packet latency average = 20.7872
	minimum = 7
	maximum = 53
Network latency average = 20.7872
	minimum = 7
	maximum = 53
Slowest packet = 7093
Flit latency average = 20.9463
	minimum = 7
	maximum = 53
Slowest flit = 7093
Fragmentation average = 0
	minimum = 0
	maximum = 0
Injected packet rate average = 0.00991667
	minimum = 0.00733333 (at node 2)
	maximum = 0.0133333 (at node 15)
Accepted packet rate average = 0.0100833
	minimum = 0.00733333 (at node 8)
	maximum = 0.0133333 (at node 15)
Injected flit rate average = 0.00991667
	minimum = 0.00733333 (at node 2)
	maximum = 0.0133333 (at node 15)
Accepted flit rate average= 0.0100833
	minimum = 0.00733333 (at node 8)
	maximum = 0.0133333 (at node 15)
Injected packet length average = 1
Accepted packet length average = 1
Total in-flight flits = 3 (3 measured)
latency change    = 0.0211166
throughput change = 0.0847107
Class 0:
Packet latency average = 20.473
	minimum = 7
	maximum = 53
Network latency average = 20.473
	minimum = 7
	maximum = 53
Slowest packet = 7093
Flit latency average = 20.5994
	minimum = 7
	maximum = 53
Slowest flit = 7093
Fragmentation average = 0
	minimum = 0
	maximum = 0
Injected packet rate average = 0.00990625
	minimum = 0.007 (at node 2)
	maximum = 0.016 (at node 4)
Accepted packet rate average = 0.0100625
	minimum = 0.007 (at node 8)
	maximum = 0.0155 (at node 1)
Injected flit rate average = 0.00990625
	minimum = 0.007 (at node 2)
	maximum = 0.016 (at node 4)
Accepted flit rate average= 0.0100625
	minimum = 0.007 (at node 8)
	maximum = 0.0155 (at node 1)
Injected packet length average = 1
Accepted packet length average = 1
Total in-flight flits = 2 (2 measured)
latency change    = 0.0153479
throughput change = 0.00207039
Class 0:
Packet latency average = 20.8149
	minimum = 7
	maximum = 53
Network latency average = 20.8149
	minimum = 7
	maximum = 53
Slowest packet = 7093
Flit latency average = 20.9116
	minimum = 7
	maximum = 53
Slowest flit = 7093
Fragmentation average = 0
	minimum = 0
	maximum = 0
Injected packet rate average = 0.00975
	minimum = 0.0068 (at node 2)
	maximum = 0.014 (at node 4)
Accepted packet rate average = 0.0099
	minimum = 0.0072 (at node 8)
	maximum = 0.014 (at node 1)
Injected flit rate average = 0.00975
	minimum = 0.0068 (at node 2)
	maximum = 0.014 (at node 4)
Accepted flit rate average= 0.0099
	minimum = 0.0072 (at node 8)
	maximum = 0.014 (at node 1)
Injected packet length average = 1
Accepted packet length average = 1
Total in-flight flits = 1 (1 measured)
latency change    = 0.0164254
throughput change = 0.0164141
Class 0:
Packet latency average = 20.6087
	minimum = 7
	maximum = 53
Network latency average = 20.6087
	minimum = 7
	maximum = 53
Slowest packet = 7093
Flit latency average = 20.6938
	minimum = 7
	maximum = 53
Slowest flit = 7093
Fragmentation average = 0
	minimum = 0
	maximum = 0
Injected packet rate average = 0.00964583
	minimum = 0.007 (at node 2)
	maximum = 0.0136667 (at node 4)
Accepted packet rate average = 0.00972917
	minimum = 0.00733333 (at node 8)
	maximum = 0.0136667 (at node 1)
Injected flit rate average = 0.00964583
	minimum = 0.007 (at node 2)
	maximum = 0.0136667 (at node 4)
Accepted flit rate average= 0.00972917
	minimum = 0.00733333 (at node 8)
	maximum = 0.0136667 (at node 1)
Injected packet length average = 1
Accepted packet length average = 1
Total in-flight flits = 3 (3 measured)
latency change    = 0.0100062
throughput change = 0.0175589
Draining all recorded packets ...
Draining remaining packets ...
Time taken is 4538 cycles
Class 0:
Packet latency average = 22.2963
	minimum = 7
	maximum = 61
Network latency average = 22.2963
	minimum = 7
	maximum = 61
Slowest packet = 7421
Flit latency average = 22.2963
	minimum = 7
	maximum = 61
Slowest flit = 7421
Fragmentation average = 0
	minimum = 0
	maximum = 0
Injected packet rate average = 0.010625
	minimum = 0 (at node 1)
	maximum = 0.024 (at node 2)
Accepted packet rate average = 0.010125
	minimum = 0 (at node 4)
	maximum = 0.022 (at node 8)
Injected flit rate average = 0.010625
	minimum = 0 (at node 1)
[...]
Packet latency average = 21.095
	minimum = 7
	maximum = 57
Network latency average = 21.095
	minimum = 7
	maximum = 57
Slowest packet = 32482
Flit latency average = 21.105
	minimum = 7
	maximum = 57
Slowest flit = 32482
Fragmentation average = 0
	minimum = 0
	maximum = 0
Injected packet rate average = 0.0113125
	minimum = 0.007 (at node 0)
	maximum = 0.018 (at node 8)
Accepted packet rate average = 0.0113125
	minimum = 0.007 (at node 0)
	maximum = 0.018 (at node 2)
Injected flit rate average = 0.0113125
	minimum = 0.007 (at node 0)
	maximum = 0.018 (at node 8)
Accepted flit rate average= 0.0113125
	minimum = 0.007 (at node 0)
	maximum = 0.018 (at node 2)
Injected packet length average = 1
Accepted packet length average = 1
Total in-flight flits = 2 (2 measured)
latency change    = 0.0571161
throughput change = 0.0276243
Class 0:
Packet latency average = 21.4962
	minimum = 7
	maximum = 57
Network latency average = 21.4962
	minimum = 7
	maximum = 57
Slowest packet = 32482
Flit latency average = 21.5
	minimum = 7
	maximum = 57
Slowest flit = 32482
Fragmentation average = 0
	minimum = 0
	maximum = 0
Injected packet rate average = 0.011125
	minimum = 0.006 (at node 7)
	maximum = 0.016 (at node 8)
Accepted packet rate average = 0.0111667
	minimum = 0.006 (at node 13)
	maximum = 0.0153333 (at node 2)
Injected flit rate average = 0.011125
	minimum = 0.006 (at node 7)
	maximum = 0.016 (at node 8)
Accepted flit rate average= 0.0111667
	minimum = 0.006 (at node 13)
	maximum = 0.0153333 (at node 2)
Injected packet length average = 1
Accepted packet length average = 1
Total in-flight flits = 1 (1 measured)
latency change    = 0.0186669
throughput change = 0.0130597
Class 0:
Packet latency average = 20.8198
	minimum = 7
	maximum = 57
Network latency average = 20.8198
	minimum = 7
	maximum = 57
Slowest packet = 32482
Flit latency average = 20.8266
	minimum = 7
	maximum = 57
Slowest flit = 32482
Fragmentation average = 0
	minimum = 0
	maximum = 0
Injected packet rate average = 0.010875
	minimum = 0.007 (at node 7)
	maximum = 0.014 (at node 11)
Accepted packet rate average = 0.0108125
	minimum = 0.007 (at node 13)
	maximum = 0.0145 (at node 14)
Injected flit rate average = 0.010875
	minimum = 0.007 (at node 7)
	maximum = 0.014 (at node 11)
Accepted flit rate average= 0.0108125
	minimum = 0.007 (at node 13)
	maximum = 0.0145 (at node 14)
Injected packet length average = 1
Accepted packet length average = 1
Total in-flight flits = 4 (4 measured)
latency change    = 0.0324919
throughput change = 0.0327553
Class 0:
Packet latency average = 21.4045
	minimum = 7
	maximum = 63
Network latency average = 21.4045
	minimum = 7
	maximum = 63
Slowest packet = 32787
Flit latency average = 21.4072
	minimum = 7
	maximum = 63
Slowest flit = 32787
Fragmentation average = 0
	minimum = 0
	maximum = 0
Injected packet rate average = 0.0111
	minimum = 0.0088 (at node 7)
	maximum = 0.0136 (at node 3)
Accepted packet rate average = 0.01105
	minimum = 0.0088 (at node 13)
	maximum = 0.0136 (at node 14)
Injected flit rate average = 0.0111
	minimum = 0.0088 (at node 7)
	maximum = 0.0136 (at node 3)
Accepted flit rate average= 0.01105
	minimum = 0.0088 (at node 13)
	maximum = 0.0136 (at node 14)
Injected packet length average = 1
Accepted packet length average = 1
Total in-flight flits = 4 (4 measured)
latency change    = 0.0273203
throughput change = 0.0214932
Draining all recorded packets ...
Draining remaining packets ...
Time taken is 4086 cycles
Class 0:
Packet latency average = 19.2754
	minimum = 7
	maximum = 47
Network latency average = 19.2754
	minimum = 7
	maximum = 47
Slowest packet = 32814
Flit latency average = 19.2754
	minimum = 7
	maximum = 47
Slowest flit = 32814
Fragmentation average = 0
	minimum = 0
	maximum = 0
Injected packet rate average = 0.008875
	minimum = 0 (at node 13)
	maximum = 0.022 (at node 10)
Accepted packet rate average = 0.008625
	minimum = 0 (at node 7)
	maximum = 0.02 (at node 9)
Injected flit rate average = 0.008875
	minimum = 0 (at node 13)
	maximum = 0.022 (at node 10)
Accepted flit rate average= 0.008625
	minimum = 0 (at node 7)
	maximum = 0.02 (at node 9)
Injected packet length average = 1
Accepted packet length average = 1
Total in-flight flits = 2 (0 measured)
latency change    = 1
throughput change = 1
Class 0:
Packet latency average = 20.4076
	minimum = 7
	maximum = 54
Network latency average = 20.4076
	minimum = 7
	maximum = 54
Slowest packet = 32899
Flit latency average = 20.4076
	minimum = 7
	maximum = 54
Slowest flit = 32899
Fragmentation average = 0
	minimum = 0
	maximum = 0
Injected packet rate average = 0.010125
	minimum = 0.003 (at node 13)
	maximum = 0.018 (at node 10)
Accepted packet rate average = 0.0098125
	minimum = 0.003 (at node 7)
	maximum = 0.018 (at node 10)
Injected flit rate average = 0.010125
	minimum = 0.003 (at node 13)
	maximum = 0.018 (at node 10)
Accepted flit rate average= 0.0098125
	minimum = 0.003 (at node 7)
	maximum = 0.018 (at node 10)
Injected packet length average = 1
Accepted packet length average = 1
Total in-flight flits = 5 (0 measured)
latency change    = 0.0554832
throughput change = 0.121019
Class 0:
Packet latency average = 18.8267
	minimum = 7
	maximum = 48
Network latency average = 18.8267
	minimum = 7
	maximum = 48
Slowest packet = 33009
Flit latency average = 18.8267
	minimum = 7
	maximum = 48
Slowest flit = 33009
Fragmentation average = 0
	minimum = 0
	maximum = 0
Injected packet rate average = 0.009125
	minimum = 0 (at node 8)
	maximum = 0.018 (at node 1)
Accepted packet rate average = 0.009375
	minimum = 0 (at node 2)
	maximum = 0.018 (at node 4)
Injected flit rate average = 0.009125
	minimum = 0 (at node 8)
	maximum = 0.018 (at node 1)
Accepted flit rate average= 0.009375
	minimum = 0 (at node 2)
	maximum = 0.018 (at node 4)
Injected packet length average = 1
Accepted packet length average = 1
Total in-flight flits = 3 (0 measured)
latency change    = 0.0839754
throughput change = 0.0466667
Warmed up ...Time used is 1500 cycles
Class 0:
Packet latency average = 21.6567
	minimum = 7
	maximum = 58
Network latency average = 21.6567
	minimum = 7
	maximum = 58
Slowest packet = 33063
Flit latency average = 21.8857
	minimum = 7
	maximum = 58
Slowest flit = 33063
Fragmentation average = 0
	minimum = 0
	maximum = 0
Injected packet rate average = 0.008875
	minimum = 0.002 (at node 4)
	maximum = 0.012 (at node 1)
Accepted packet rate average = 0.00875
	minimum = 0.002 (at node 1)
	maximum = 0.014 (at node 10)
Injected flit rate average = 0.008875
	minimum = 0.002 (at node 4)
	maximum = 0.012 (at node 1)
Accepted flit rate average= 0.00875
	minimum = 0.002 (at node 1)
	maximum = 0.014 (at node 10)
Injected packet length average = 1
Accepted packet length average = 1
Total in-flight flits = 4 (4 measured)
latency change    = 0.130678
throughput change = 0.0714286
Class 0:
Packet latency average = 21.871
	minimum = 7
	maximum = 58
Network latency average = 21.871
	minimum = 7
	maximum = 58
Slowest packet = 33063
Flit latency average = 21.9684
	minimum = 7
	maximum = 58
Slowest flit = 33063
Fragmentation average = 0
	minimum = 0
	maximum = 0
Injected packet rate average = 0.01
	minimum = 0.003 (at node 4)
	maximum = 0.014 (at node 1)
Accepted packet rate average = 0.009875
	minimum = 0.003 (at node 1)
	maximum = 0.014 (at node 4)
Injected flit rate average = 0.01
	minimum = 0.003 (at node 4)
	maximum = 0.014 (at node 1)
Accepted flit rate average= 0.009875
	minimum = 0.003 (at node 1)
	maximum = 0.014 (at node 4)
Injected packet length average = 1
Accepted packet length average = 1
Total in-flight flits = 5 (5 measured)
latency change    = 0.00979615
throughput change = 0.113924
Class 0:
Packet latency average = 21.0992
	minimum = 7
	maximum = 71
Network latency average = 21.0992
	minimum = 7
	maximum = 71
Slowest packet = 33200
Flit latency average = 21.1714
	minimum = 7
	maximum = 71
Slowest flit = 33200
Fragmentation average = 0
	minimum = 0
	maximum = 0
Injected packet rate average = 0.0103333
	minimum = 0.006 (at node 4)
	maximum = 0.0146667 (at node 10)
Accepted packet rate average = 0.0102083
	minimum = 0.006 (at node 1)
	maximum = 0.0153333 (at node 10)
Injected flit rate average = 0.0103333
	minimum = 0.006 (at node 4)
	maximum = 0.0146667 (at node 10)
Accepted flit rate average= 0.0102083
	minimum = 0.006 (at node 1)
	maximum = 0.0153333 (at node 10)
Injected packet length average = 1
Accepted packet length average = 1
Total in-flight flits = 6 (6 measured)
latency change    = 0.0365794
throughput change = 0.0326531
Class 0:
Packet latency average = 21.2229
	minimum = 7
	maximum = 71
Network latency average = 21.2229
	minimum = 7
	maximum = 71
Slowest packet = 33200
Flit latency average = 21.2761
	minimum = 7
	maximum = 71
Slowest flit = 33200
Fragmentation average = 0
	minimum = 0
	maximum = 0
Injected packet rate average = 0.0102188
	minimum = 0.007 (at node 4)
	maximum = 0.0135 (at node 11)
Accepted packet rate average = 0.0101875
	minimum = 0.007 (at node 1)
	maximum = 0.0135 (at node 10)
Injected flit rate average = 0.0102188
	minimum = 0.007 (at node 4)
	maximum = 0.0135 (at node 11)
Accepted flit rate average= 0.0101875
	minimum = 0.007 (at node 1)
	maximum = 0.0135 (at node 10)
Injected packet length average = 1
Accepted packet length average = 1
Total in-flight flits = 4 (4 measured)
latency change    = 0.00583033
throughput change = 0.00204499
Class 0:
Packet latency average = 21.3995
	minimum = 7
	maximum = 71
Network latency average = 21.3995
	minimum = 7
	maximum = 71
Slowest packet = 33200
Flit latency average = 21.4414
	minimum = 7
	maximum = 71
Slowest flit = 33200
Fragmentation average = 0
	minimum = 0
	maximum = 0
Injected packet rate average = 0.01
	minimum = 0.0068 (at node 4)
	maximum = 0.0136 (at node 11)
Accepted packet rate average = 0.010025
	minimum = 0.0068 (at node 1)
	maximum = 0.0136 (at node 14)
Injected flit rate average = 0.01
	minimum = 0.0068 (at node 4)
	maximum = 0.0136 (at node 11)
Accepted flit rate average= 0.010025
	minimum = 0.0068 (at node 1)
	maximum = 0.0136 (at node 14)
Injected packet length average = 1
Accepted packet length average = 1
Total in-flight flits = 2 (2 measured)
latency change    = 0.00825194
throughput change = 0.0162095
Draining all recorded packets ...
Draining remaining packets ...
Time taken is 4033 cycles
Class 0:
Packet latency average = 20.8182
	minimum = 7
	maximum = 47
Network latency average = 20.8182
	minimum = 7
	maximum = 47
Slowest packet = 33479
Flit latency average = 20.8182
	minimum = 7
	maximum = 47
Slowest flit = 33479
Fragmentation average = 0
	minimum = 0
	maximum = 0
Injected packet rate average = 0.01025
	minimum = 0.004 (at node 3)
	maximum = 0.018 (at node 4)
Accepted packet rate average = 0.009625
	minimum = 0.002 (at node 12)
	maximum = 0.018 (at node 1)
Injected flit rate average = 0.01025
	minimum = 0.004 (at node 3)
	maximum = 0.018 (at node 4)
Accepted flit rate average= 0.009625
	minimum = 0.002 (at node 12)
	maximum = 0.018 (at node 1)
Injected packet length average = 1
Accepted packet length average = 1
Total in-flight flits = 5 (0 measured)
latency change    = 1
throughput change = 1
Class 0:
Packet latency average = 20.4514
	minimum = 7
	maximum = 47
Network latency average = 20.4514
	minimum = 7
	maximum = 47
Slowest packet = 33479
Flit latency average = 20.4514
	minimum = 7
	maximum = 47
Slowest flit = 33479
Fragmentation average = 0
	minimum = 0
	maximum = 0
Injected packet rate average = 0.0093125
	minimum = 0.005 (at node 6)
	maximum = 0.013 (at node 8)
Accepted packet rate average = 0.009
	minimum = 0.004 (at node 12)
	maximum = 0.013 (at node 2)
Injected flit rate average = 0.0093125
	minimum = 0.005 (at node 6)
	maximum = 0.013 (at node 8)
Accepted flit rate average= 0.009
	minimum = 0.004 (at node 12)
	maximum = 0.013 (at node 2)
Injected packet length average = 1
Accepted packet length average = 1
Total in-flight flits = 5 (0 measured)
latency change    = 0.0179349
throughput change = 0.0694444
Class 0:
Packet latency average = 22.2683
	minimum = 7
	maximum = 53
Network latency average = 22.2683
	minimum = 7
	maximum = 53
Slowest packet = 33595
Flit latency average = 22.2683
	minimum = 7
	maximum = 53
Slowest flit = 33595
Fragmentation average = 0
	minimum = 0
	maximum = 0
Injected packet rate average = 0.010125
	minimum = 0.006 (at node 8)
	maximum = 0.018 (at node 4)
Accepted packet rate average = 0.01025
	minimum = 0.004 (at node 3)
	maximum = 0.018 (at node 1)
Injected flit rate average = 0.010125
	minimum = 0.006 (at node 8)
	maximum = 0.018 (at node 4)
Accepted flit rate average= 0.01025
	minimum = 0.004 (at node 3)
	maximum = 0.018 (at node 1)
Injected packet length average = 1
Accepted packet length average = 1
Total in-flight flits = 4 (0 measured)
latency change    = 0.0815915
throughput change = 0.121951
Warmed up ...Time used is 1500 cycles
Class 0:
Packet latency average = 20.2154
	minimum = 7
	maximum = 52
Network latency average = 20.2154
	minimum = 7
	maximum = 52
Slowest packet = 33709
Flit latency average = 21.029
	minimum = 7
	maximum = 52
Slowest flit = 33709
Fragmentation average = 0
	minimum = 0
	maximum = 0
Injected packet rate average = 0.00875
	minimum = 0.004 (at node 3)
	maximum = 0.016 (at node 1)
Accepted packet rate average = 0.008625
	minimum = 0.004 (at node 0)
	maximum = 0.018 (at node 4)
Injected flit rate average = 0.00875
	minimum = 0.004 (at node 3)
	maximum = 0.016 (at node 1)
Accepted flit rate average= 0.008625
	minimum = 0.004 (at node 0)
	maximum = 0.018 (at node 4)
Injected packet length average = 1
Accepted packet length average = 1
Total in-flight flits = 5 (5 measured)
latency change    = 0.101552
throughput change = 0.188406
Class 0:
Packet latency average = 20.1232
	minimum = 7
	maximum = 52
Network latency average = 20.1232
	minimum = 7
	maximum = 52
Slowest packet = 33709
Flit latency average = 20.5211
	minimum = 7
	maximum = 52
Slowest flit = 33709
Fragmentation average = 0
	minimum = 0
	maximum = 0
Injected packet rate average = 0.0089375
	minimum = 0.005 (at node 9)
	maximum = 0.015 (at node 8)
Accepted packet rate average = 0.008875
	minimum = 0.005 (at node 6)
	maximum = 0.015 (at node 2)
Injected flit rate average = 0.0089375
	minimum = 0.005 (at node 9)
	maximum = 0.015 (at node 8)
Accepted flit rate average= 0.008875
	minimum = 0.005 (at node 6)
	maximum = 0.015 (at node 2)
Injected packet length average = 1
Accepted packet length average = 1
Total in-flight flits = 5 (5 measured)
latency change    = 0.00458159
throughput change = 0.028169
Class 0:
Packet latency average = 21.1395
	minimum = 7
	maximum = 55
Network latency average = 21.1395
	minimum = 7
	maximum = 55
Slowest packet = 33885
Flit latency average = 21.379
	minimum = 7
	maximum = 55
Slowest flit = 33885
Fragmentation average = 0
	minimum = 0
	maximum = 0
Injected packet rate average = 0.009
	minimum = 0.006 (at node 2)
	maximum = 0.0133333 (at node 1)
Accepted packet rate average = 0.009125
	minimum = 0.006 (at node 5)
	maximum = 0.014 (at node 4)
Injected flit rate average = 0.009
	minimum = 0.006 (at node 2)
	maximum = 0.0133333 (at node 1)
Accepted flit rate average= 0.009125
	minimum = 0.006 (at node 5)
	maximum = 0.014 (at node 4)
Injected packet length average = 1
Accepted packet length average = 1
Total in-flight flits = 1 (1 measured)
latency change    = 0.048078
throughput change = 0.0273973
Class 0:
Packet latency average = 21.2075
	minimum = 7
	maximum = 59
Network latency average = 21.2075
	minimum = 7
	maximum = 59
Slowest packet = 33912
Flit latency average = 21.3696
	minimum = 7
	maximum = 59
Slowest flit = 33912
Fragmentation average = 0
	minimum = 0
	maximum = 0
Injected packet rate average = 0.0100625
	minimum = 0.007 (at node 5)
	maximum = 0.015 (at node 1)
Accepted packet rate average = 0.0100625
	minimum = 0.007 (at node 5)
	maximum = 0.015 (at node 4)
Injected flit rate average = 0.0100625
	minimum = 0.007 (at node 5)
	maximum = 0.015 (at node 1)
Accepted flit rate average= 0.0100625
	minimum = 0.007 (at node 5)
	maximum = 0.015 (at node 4)
Injected packet length average = 1
Accepted packet length average = 1
Total in-flight flits = 4 (4 measured)
latency change    = 0.00320699
throughput change = 0.0931677
Class 0:
Packet latency average = 21.5703
	minimum = 7
	maximum = 59
Network latency average = 21.5703
	minimum = 7
	maximum = 59
Slowest packet = 33912
Flit latency average = 21.701
	minimum = 7
	maximum = 59
Slowest flit = 33912
Fragmentation average = 0
	minimum = 0
	maximum = 0
Injected packet rate average = 0.009675
	minimum = 0.0064 (at node 5)
	maximum = 0.0132 (at node 8)
Accepted packet rate average = 0.0097
	minimum = 0.0064 (at node 5)
	maximum = 0.0132 (at node 2)
Injected flit rate average = 0.009675
	minimum = 0.0064 (at node 5)
	maximum = 0.0132 (at node 8)
Accepted flit rate average= 0.0097
	minimum = 0.0064 (at node 5)
	maximum = 0.0132 (at node 2)
Injected packet length average = 1
Accepted packet length average = 1
Total in-flight flits = 3 (3 measured)
latency change    = 0.0168178
throughput change = 0.0373711
Class 0:
Packet latency average = 21.4397
	minimum = 7
	maximum = 59
Network latency average = 21.4397
	minimum = 7
	maximum = 59
Slowest packet = 33912
Flit latency average = 21.5472
	minimum = 7
	maximum = 59
Slowest flit = 33912
Fragmentation average = 0
	minimum = 0
	maximum = 0
Injected packet rate average = 0.00989583
	minimum = 0.00633333 (at node 5)
	maximum = 0.0126667 (at node 6)
Accepted packet rate average = 0.0099375
	minimum = 0.006 (at node 5)
	maximum = 0.013 (at node 7)
Injected flit rate average = 0.00989583
	minimum = 0.00633333 (at node 5)
	maximum = 0.0126667 (at node 6)
Accepted flit rate average= 0.0099375
	minimum = 0.006 (at node 5)
	maximum = 0.013 (at node 7)
Injected packet length average = 1
Accepted packet length average = 1
Total in-flight flits = 2 (2 measured)
latency change    = 0.00608991
throughput change = 0.0238994
Class 0:
Packet latency average = 21.4059
	minimum = 7
	maximum = 59
Network latency average = 21.4059
	minimum = 7
	maximum = 59
Slowest packet = 33912
Flit latency average = 21.4991
	minimum = 7
	maximum = 59
Slowest flit = 33912
Fragmentation average = 0
	minimum = 0
	maximum = 0
Injected packet rate average = 0.00989286
	minimum = 0.00685714 (at node 5)
	maximum = 0.0125714 (at node 1)
Accepted packet rate average = 0.00983929
	minimum = 0.00685714 (at node 5)
	maximum = 0.0128571 (at node 4)
Injected flit rate average = 0.00989286
	minimum = 0.00685714 (at node 5)
	maximum = 0.0125714 (at node 1)
Accepted flit rate average= 0.00983929
	minimum = 0.00685714 (at node 5)
	maximum = 0.0128571 (at node 4)
Injected packet length average = 1
Accepted packet length average = 1
Total in-flight flits = 7 (7 measured)
latency change    = 0.0015835
throughput change = 0.00998185
Draining all recorded packets ...
Draining remaining packets ...
Time taken is 5082 cycles
====== Overall Traffic Statistics ======
====== Traffic class 0 ======
Packet latency average = 21.1012 (50 samples)
	minimum = 7 (50 samples)
	maximum = 59.3 (50 samples)
Network latency average = 21.1012 (50 samples)
	minimum = 7 (50 samples)
	maximum = 59.3 (50 samples)
Flit latency average = 21.1468 (50 samples)
	minimum = 7 (50 samples)
	maximum = 59.3 (50 samples)
Fragmentation average = 0 (50 samples)
	minimum = 0 (50 samples)
	maximum = 0 (50 samples)
Injected packet rate average = 0.0100322 (50 samples)
	minimum = 0.00665829 (50 samples)
	maximum = 0.0135135 (50 samples)
Accepted packet rate average = 0.0100324 (50 samples)
	minimum = 0.00664933 (50 samples)
	maximum = 0.0134678 (50 samples)
Injected flit rate average = 0.0100322 (50 samples)
	minimum = 0.00665829 (50 samples)
	maximum = 0.0135135 (50 samples)
Accepted flit rate average = 0.0100324 (50 samples)
	minimum = 0.00664933 (50 samples)
	maximum = 0.0134678 (50 samples)
Injected packet size average = 1 (50 samples)
Accepted packet size average = 1 (50 samples)
Hops average = 3.741 (50 samples)
Total run time 1.17557
