BEGIN Configuration File: /tmp/tmp9h9yxvqi.cfg
topology = mesh;
k = 4;
n = 2;
routing_function = planar_adapt;
num_vcs = 4;
vc_buf_size = 4;
wait_for_tail_credit = 1;
vc_allocator = islip;
sw_allocator = islip;
alloc_iters = 1;
credit_delay = 2;
routing_delay = 1;
vc_alloc_delay = 1;
sw_alloc_delay = 1;
input_speedup = 2;
output_speedup = 1;
internal_speedup = 1.0;
traffic = hotspot;
packet_size = 1;
sim_type = latency;
injection_rate = 0.01;
warmup_periods = 3;
sample_period = 500;
sim_count = 50;
seed = 1;
link_failures = 1;
fail_seed = 303;

END Configuration File: /tmp/tmp9h9yxvqi.cfg
failure at node 9, channel 2 (1/1)
Class 0:
Packet latency average = 22.5952
	minimum = 7
	maximum = 43
Network latency average = 22.5952
	minimum = 7
	maximum = 43
Slowest packet = 55
Flit latency average = 22.5952
	minimum = 7
	maximum = 43
Slowest flit = 55
Fragmentation average = 0
	minimum = 0
	maximum = 0
Injected packet rate average = 0.011125
	minimum = 0.006 (at node 1)
	maximum = 0.022 (at node 7)
Accepted packet rate average = 0.0105
	minimum = 0 (at node 0)
	maximum = 0.168 (at node 15)
Injected flit rate average = 0.011125
	minimum = 0.006 (at node 1)
	maximum = 0.022 (at node 7)
Accepted flit rate average= 0.0105
	minimum = 0 (at node 0)
	maximum = 0.168 (at node 15)
Injected packet length average = 1
Accepted packet length average = 1
Total in-flight flits = 5 (0 measured)
latency change    = 1
throughput change = 1
Class 0:
Packet latency average = 23.2156
	minimum = 7
	maximum = 43
Network latency average = 23.2156
	minimum = 7
	maximum = 43
Slowest packet = 55
Flit latency average = 23.2156
	minimum = 7
	maximum = 43
Slowest flit = 55
Fragmentation average = 0
	minimum = 0
	maximum = 0
Injected packet rate average = 0.0108125
	minimum = 0.006 (at node 2)
	maximum = 0.019 (at node 7)
Accepted packet rate average = 0.0104375
	minimum = 0 (at node 0)
	maximum = 0.167 (at node 15)
Injected flit rate average = 0.0108125
	minimum = 0.006 (at node 2)
	maximum = 0.019 (at node 7)
Accepted flit rate average= 0.0104375
	minimum = 0 (at node 0)
	maximum = 0.167 (at node 15)
Injected packet length average = 1
Accepted packet length average = 1
Total in-flight flits = 6 (0 measured)
latency change    = 0.0267205
throughput change = 0.00598802
Class 0:
Packet latency average = 23.9583
	minimum = 7
	maximum = 46
Network latency average = 23.9583
	minimum = 7
	maximum = 46
Slowest packet = 170
Flit latency average = 23.9583
	minimum = 7
	maximum = 46
Slowest flit = 170
Fragmentation average = 0
	minimum = 0
	maximum = 0
Injected packet rate average = 0.009
	minimum = 0.002 (at node 6)
	maximum = 0.026 (at node 12)
Accepted packet rate average = 0.009
	minimum = 0 (at node 0)
	maximum = 0.144 (at node 15)
Injected flit rate average = 0.009
	minimum = 0.002 (at node 6)
	maximum = 0.026 (at node 12)
Accepted flit rate average= 0.009
	minimum = 0 (at node 0)
	maximum = 0.144 (at node 15)
Injected packet length average = 1
Accepted packet length average = 1
Total in-flight flits = 6 (0 measured)
latency change    = 0.0310023
throughput change = 0.159722
Warmed up ...Time used is 1500 cycles
Class 0:
Packet latency average = 30.0777
	minimum = 7
	maximum = 78
Network latency average = 30.0777
	minimum = 7
	maximum = 78
Slowest packet = 302
Flit latency average = 30.0826
	minimum = 7
	maximum = 78
Slowest flit = 302
Fragmentation average = 0
	minimum = 0
	maximum = 0
Injected packet rate average = 0.0135
	minimum = 0.006 (at node 2)
	maximum = 0.026 (at node 8)
Accepted packet rate average = 0.013625
	minimum = 0 (at node 0)
	maximum = 0.218 (at node 15)
Injected flit rate average = 0.0135
	minimum = 0.006 (at node 2)
	maximum = 0.026 (at node 8)
Accepted flit rate average= 0.013625
	minimum = 0 (at node 0)
	maximum = 0.218 (at node 15)
Injected packet length average = 1
Accepted packet length average = 1
Total in-flight flits = 5 (5 measured)
latency change    = 0.203451
throughput change = 0.33945
Class 0:
Packet latency average = 28.2053
	minimum = 7
	maximum = 78
Network latency average = 28.2053
	minimum = 7
	maximum = 78
Slowest packet = 302
Flit latency average = 28.2653
	minimum = 7
	maximum = 78
Slowest flit = 302
Fragmentation average = 0
	minimum = 0
	maximum = 0
Injected packet rate average = 0.0119375
	minimum = 0.007 (at node 0)
	maximum = 0.019 (at node 8)
Accepted packet rate average = 0.01225
	minimum = 0 (at node 0)
	maximum = 0.196 (at node 15)
Injected flit rate average = 0.0119375
	minimum = 0.007 (at node 0)
	maximum = 0.019 (at node 8)
Accepted flit rate average= 0.01225
	minimum = 0 (at node 0)
	maximum = 0.196 (at node 15)
Injected packet length average = 1
Accepted packet length average = 1
Total in-flight flits = 1 (1 measured)
latency change    = 0.066385
throughput change = 0.112245
Class 0:
Packet latency average = 26.4135
	minimum = 7
	maximum = 78
Network latency average = 26.4135
	minimum = 7
	maximum = 78
Slowest packet = 302
Flit latency average = 26.4963
	minimum = 7
	maximum = 78
Slowest flit = 302
Fragmentation average = 0
	minimum = 0
	maximum = 0
Injected packet rate average = 0.0112083
	minimum = 0.006 (at node 0)
	maximum = 0.0153333 (at node 8)
Accepted packet rate average = 0.0113333
	minimum = 0 (at node 0)
	maximum = 0.181333 (at node 15)
Injected flit rate average = 0.0112083
	minimum = 0.006 (at node 0)
	maximum = 0.0153333 (at node 8)
Accepted flit rate average= 0.0113333
	minimum = 0 (at node 0)
	maximum = 0.181333 (at node 15)
Injected packet length average = 1
Accepted packet length average = 1
Total in-flight flits = 3 (3 measured)
latency change    = 0.0678338
throughput change = 0.0808824
Class 0:
Packet latency average = 25.6746
	minimum = 7
	maximum = 78
Network latency average = 25.6746
	minimum = 7
	maximum = 78
Slowest packet = 302
Flit latency average = 25.7529
	minimum = 7
	maximum = 78
Slowest flit = 302
Fragmentation average = 0
	minimum = 0
	maximum = 0
Injected packet rate average = 0.0106875
	minimum = 0.0055 (at node 0)
	maximum = 0.0135 (at node 8)
Accepted packet rate average = 0.01075
	minimum = 0 (at node 0)
	maximum = 0.172 (at node 15)
Injected flit rate average = 0.0106875
	minimum = 0.0055 (at node 0)
	maximum = 0.0135 (at node 8)
Accepted flit rate average= 0.01075
	minimum = 0 (at node 0)
	maximum = 0.172 (at node 15)
Injected packet length average = 1
Accepted packet length average = 1
Total in-flight flits = 4 (4 measured)
latency change    = 0.0287825
throughput change = 0.0542636
Class 0:
Packet latency average = 25.3149
	minimum = 7
	maximum = 78
Network latency average = 25.3149
	minimum = 7
	maximum = 78
Slowest packet = 302
Flit latency average = 25.3839
	minimum = 7
	maximum = 78
Slowest flit = 302
Fragmentation average = 0
	minimum = 0
	maximum = 0
Injected packet rate average = 0.010475
	minimum = 0.006 (at node 0)
	maximum = 0.0132 (at node 6)
Accepted packet rate average = 0.01055
	minimum = 0 (at node 0)
	maximum = 0.1688 (at node 15)
Injected flit rate average = 0.010475
	minimum = 0.006 (at node 0)
	maximum = 0.0132 (at node 6)
Accepted flit rate average= 0.01055
	minimum = 0 (at node 0)
	maximum = 0.1688 (at node 15)
Injected packet length average = 1
Accepted packet length average = 1
Total in-flight flits = 3 (3 measured)
latency change    = 0.0142071
throughput change = 0.0189573
Class 0:
Packet latency average = 25.2325
	minimum = 7
	maximum = 78
Network latency average = 25.2325
	minimum = 7
	maximum = 78
Slowest packet = 302
Flit latency average = 25.2911
	minimum = 7
	maximum = 78
Slowest flit = 302
Fragmentation average = 0
	minimum = 0
	maximum = 0
Injected packet rate average = 0.0105208
	minimum = 0.00733333 (at node 0)
	maximum = 0.0133333 (at node 14)
Accepted packet rate average = 0.0105208
	minimum = 0 (at node 0)
	maximum = 0.168333 (at node 15)
Injected flit rate average = 0.0105208
	minimum = 0.00733333 (at node 0)
	maximum = 0.0133333 (at node 14)
Accepted flit rate average= 0.0105208
	minimum = 0 (at node 0)
	maximum = 0.168333 (at node 15)
Injected packet length average = 1
Accepted packet length average = 1
Total in-flight flits = 6 (6 measured)
latency change    = 0.00326718
throughput change = 0.00277228
Class 0:
Packet latency average = 25.1424
	minimum = 7
	maximum = 78
Network latency average = 25.1424
	minimum = 7
	maximum = 78
Slowest packet = 302
Flit latency average = 25.1935
	minimum = 7
	maximum = 78
Slowest flit = 302
Fragmentation average = 0
	minimum = 0
	maximum = 0
Injected packet rate average = 0.0105
	minimum = 0.00742857 (at node 10)
	maximum = 0.0131429 (at node 1)
Accepted packet rate average = 0.0105179
	minimum = 0 (at node 0)
	maximum = 0.168286 (at node 15)
Injected flit rate average = 0.0105
	minimum = 0.00742857 (at node 10)
	maximum = 0.0131429 (at node 1)
Accepted flit rate average= 0.0105179
	minimum = 0 (at node 0)
	maximum = 0.168286 (at node 15)
Injected packet length average = 1
Accepted packet length average = 1
Total in-flight flits = 5 (5 measured)
latency change    = 0.00358351
throughput change = 0.000282965
Draining all recorded packets ...
Draining remaining packets ...
Time taken is 5077 cycles
Class 0:
Packet latency average = 24.0156
	minimum = 7
	maximum = 44
Network latency average = 24.0156
	minimum = 7
	maximum = 44
Slowest packet = 853
Flit latency average = 24.0156
	minimum = 7
	maximum = 44
Slowest flit = 853
Fragmentation average = 0
	minimum = 0
	maximum = 0
Injected packet rate average = 0.0085
	minimum = 0.004 (at node 1)
	maximum = 0.016 (at node 10)
Accepted packet rate average = 0.008
	minimum = 0 (at node 0)
	maximum = 0.128 (at node 15)
Injected flit rate average = 0.0085
	minimum = 0.004 (at node 1)
	maximum = 0.016 (at node 10)
Accepted flit rate average= 0.008
	minimum = 0 (at node 0)
	maximum = 0.128 (at node 15)
Injected packet length average = 1
Accepted packet length average = 1
Total in-flight flits = 4 (0 measured)
latency change    = 1
throughput change = 1
Class 0:
Packet latency average = 24.8672
	minimum = 7
	maximum = 44
Network latency average = 24.8672
	minimum = 7
	maximum = 44
Slowest packet = 853
Flit latency average = 24.8672
	minimum = 7
	maximum = 44
Slowest flit = 853
Fragmentation average = 0
	minimum = 0
	maximum = 0
Injected packet rate average = 0.0084375
	minimum = 0.004 (at node 1)
	maximum = 0.013 (at node 0)
Accepted packet rate average = 0.008
	minimum = 0 (at node 0)
	maximum = 0.128 (at node 15)
Injected flit rate average = 0.0084375
	minimum = 0.004 (at node 1)
	maximum = 0.013 (at node 0)
Accepted flit rate average= 0.008
	minimum = 0 (at node 0)
	maximum = 0.128 (at node 15)
Injected packet length average = 1
Accepted packet length average = 1
Total in-flight flits = 7 (0 measured)
latency change    = 0.0342444
throughput change = 0
Class 0:
Packet latency average = 25.1688
	minimum = 7
	maximum = 65
Network latency average = 25.1688
	minimum = 7
	maximum = 65
Slowest packet = 975
Flit latency average = 25.1688
	minimum = 7
	maximum = 65
Slowest flit = 975
Fragmentation average = 0
	minimum = 0
	maximum = 0
Injected packet rate average = 0.009
	minimum = 0.004 (at node 1)
	maximum = 0.016 (at node 10)
Accepted packet rate average = 0.009625
	minimum = 0 (at node 0)
	maximum = 0.154 (at node 15)
Injected flit rate average = 0.009
	minimum = 0.004 (at node 1)
	maximum = 0.016 (at node 10)
Accepted flit rate average= 0.009625
	minimum = 0 (at node 0)
	maximum = 0.154 (at node 15)
Injected packet length average = 1
Accepted packet length average = 1
Total in-flight flits = 2 (0 measured)
latency change    = 0.0119848
throughput change = 0.168831
Warmed up ...Time used is 1500 cycles
Class 0:
Packet latency average = 21.662
	minimum = 7
	maximum = 39
Network latency average = 21.662
	minimum = 7
	maximum = 39
Slowest packet = 1057
Flit latency average = 22.0411
	minimum = 7
	maximum = 40
Slowest flit = 1047
Fragmentation average = 0
	minimum = 0
	maximum = 0
Injected packet rate average = 0.009
	minimum = 0.002 (at node 0)
	maximum = 0.02 (at node 6)
Accepted packet rate average = 0.009125
	minimum = 0 (at node 0)
	maximum = 0.146 (at node 15)
Injected flit rate average = 0.009
	minimum = 0.002 (at node 0)
	maximum = 0.02 (at node 6)
Accepted flit rate average= 0.009125
	minimum = 0 (at node 0)
	maximum = 0.146 (at node 15)
Injected packet length average = 1
Accepted packet length average = 1
Total in-flight flits = 1 (1 measured)
latency change    = 0.16189
throughput change = 0.0547945
Class 0:
Packet latency average = 23.54
	minimum = 7
	maximum = 49
Network latency average = 23.54
	minimum = 7
	maximum = 49
Slowest packet = 1176
Flit latency average = 23.6974
	minimum = 7
	maximum = 49
Slowest flit = 1176
Fragmentation average = 0
	minimum = 0
	maximum = 0
Injected packet rate average = 0.0096875
	minimum = 0.004 (at node 8)
	maximum = 0.016 (at node 4)
Accepted packet rate average = 0.0095
	minimum = 0 (at node 0)
	maximum = 0.152 (at node 15)
Injected flit rate average = 0.0096875
	minimum = 0.004 (at node 8)
	maximum = 0.016 (at node 4)
Accepted flit rate average= 0.0095
	minimum = 0 (at node 0)
	maximum = 0.152 (at node 15)
Injected packet length average = 1
Accepted packet length average = 1
Total in-flight flits = 5 (5 measured)
latency change    = 0.0797803
throughput change = 0.0394737
Class 0:
Packet latency average = 24.0954
	minimum = 7
	maximum = 69
Network latency average = 24.0954
	minimum = 7
	maximum = 69
Slowest packet = 1216
Flit latency average = 24.1893
	minimum = 7
	maximum = 69
Slowest flit = 1216
Fragmentation average = 0
	minimum = 0
	maximum = 0
Injected packet rate average = 0.0102083
	minimum = 0.006 (at node 1)
	maximum = 0.016 (at node 4)
Accepted packet rate average = 0.010125
	minimum = 0 (at node 0)
	maximum = 0.162 (at node 15)
Injected flit rate average = 0.0102083
	minimum = 0.006 (at node 1)
	maximum = 0.016 (at node 4)
Accepted flit rate average= 0.010125
	minimum = 0 (at node 0)
	maximum = 0.162 (at node 15)
Injected packet length average = 1
Accepted packet length average = 1
Total in-flight flits = 4 (4 measured)
latency change    = 0.0230515
throughput change = 0.0617284
Class 0:
Packet latency average = 24.6431
	minimum = 7
	maximum = 75
Network latency average = 24.6431
	minimum = 7
	maximum = 75
Slowest packet = 1367
Flit latency average = 24.7095
	minimum = 7
	maximum = 75
Slowest flit = 1367
Fragmentation average = 0
	minimum = 0
	maximum = 0
Injected packet rate average = 0.0104688
	minimum = 0.007 (at node 1)
	maximum = 0.0145 (at node 4)
Accepted packet rate average = 0.0102188
	minimum = 0 (at node 0)
	maximum = 0.1635 (at node 15)
Injected flit rate average = 0.0104688
	minimum = 0.007 (at node 1)
	maximum = 0.0145 (at node 4)
Accepted flit rate average= 0.0102188
	minimum = 0 (at node 0)
	maximum = 0.1635 (at node 15)
Injected packet length average = 1
Accepted packet length average = 1
Total in-flight flits = 10 (10 measured)
latency change    = 0.0222229
throughput change = 0.00917431
Class 0:
Packet latency average = 24.7383
	minimum = 7
	maximum = 107
Network latency average = 24.7383
	minimum = 7
	maximum = 107
Slowest packet = 1369
Flit latency average = 24.7912
	minimum = 7
	maximum = 107
Slowest flit = 1369
Fragmentation average = 0
	minimum = 0
	maximum = 0
Injected packet rate average = 0.010175
	minimum = 0.0072 (at node 1)
	maximum = 0.0132 (at node 4)
Accepted packet rate average = 0.010175
	minimum = 0 (at node 0)
	maximum = 0.1628 (at node 15)
Injected flit rate average = 0.010175
	minimum = 0.0072 (at node 1)
	maximum = 0.0132 (at node 4)
Accepted flit rate average= 0.010175
	minimum = 0 (at node 0)
	maximum = 0.1628 (at node 15)
Injected packet length average = 1
Accepted packet length average = 1
Total in-flight flits = 2 (2 measured)
latency change    = 0.00384807
throughput change = 0.00429975
Class 0:
Packet latency average = 24.7025
	minimum = 7
	maximum = 107
Network latency average = 24.7025
	minimum = 7
	maximum = 107
Slowest packet = 1369
Flit latency average = 24.7479
	minimum = 7
	maximum = 107
Slowest flit = 1369
Fragmentation average = 0
	minimum = 0
	maximum = 0
Injected packet rate average = 0.00997917
	minimum = 0.00733333 (at node 8)
	maximum = 0.012 (at node 4)
Accepted packet rate average = 0.00991667
	minimum = 0 (at node 0)
	maximum = 0.158667 (at node 15)
Injected flit rate average = 0.00997917
	minimum = 0.00733333 (at node 8)
	maximum = 0.012 (at node 4)
Accepted flit rate average= 0.00991667
	minimum = 0 (at node 0)
	maximum = 0.158667 (at node 15)
Injected packet length average = 1
Accepted packet length average = 1
Total in-flight flits = 5 (5 measured)
latency change    = 0.00144681
throughput change = 0.0260504
Draining all recorded packets ...
Draining remaining packets ...
Time taken is 4550 cycles
Class 0:
Packet latency average = 24.1176
	minimum = 7
	maximum = 51
Network latency average = 24.1176
	minimum = 7
	maximum = 51
Slowest packet = 1537
Flit latency average = 24.1176
	minimum = 7
	maximum = 51
Slowest flit = 1537
Fragmentation average = 0
	minimum = 0
	maximum = 0
Injected packet rate average = 0.011
	minimum = 0.006 (at node 0)
	maximum = 0.02 (at node 2)
Accepted packet rate average = 0.010625
	minimum = 0 (at node 0)
	maximum = 0.17 (at node 15)
Injected flit rate average = 0.011
	minimum = 0.006 (at node 0)
	maximum = 0.02 (at node 2)
Accepted flit rate average= 0.010625
	minimum = 0 (at node 0)
	maximum = 0.17 (at node 15)
Injected packet length average = 1
Accepted packet length average = 1
Total in-flight flits = 3 (0 measured)
latency change    = 1
throughput change = 1
Class 0:
Packet latency average = 24.7765
	minimum = 7
	maximum = 58
Network latency average = 24.7765
	minimum = 7
	maximum = 58
Slowest packet = 1651
Flit latency average = 24.7765
	minimum = 7
	maximum = 58
Slowest flit = 1651
Fragmentation average = 0
	minimum = 0
	maximum = 0
Injected packet rate average = 0.0110625
	minimum = 0.006 (at node 8)
	maximum = 0.018 (at node 6)
Accepted packet rate average = 0.010625
	minimum = 0 (at node 0)
	maximum = 0.17 (at node 15)
Injected flit rate average = 0.0110625
	minimum = 0.006 (at node 8)
	maximum = 0.018 (at node 6)
Accepted flit rate average= 0.010625
	minimum = 0 (at node 0)
	maximum = 0.17 (at node 15)
Injected packet length average = 1
Accepted packet length average = 1
Total in-flight flits = 7 (0 measured)
latency change    = 0.0265907
throughput change = 0
Class 0:
Packet latency average = 22.1972
	minimum = 7
	maximum = 37
Network latency average = 22.1972
	minimum = 7
	maximum = 37
Slowest packet = 1705
Flit latency average = 22.1972
	minimum = 7
	maximum = 37
Slowest flit = 1705
Fragmentation average = 0
	minimum = 0
	maximum = 0
Injected packet rate average = 0.0085
	minimum = 0.002 (at node 0)
	maximum = 0.016 (at node 14)
Accepted packet rate average = 0.008875
	minimum = 0 (at node 0)
	maximum = 0.142 (at node 15)
Injected flit rate average = 0.0085
	minimum = 0.002 (at node 0)
	maximum = 0.016 (at node 14)
Accepted flit rate average= 0.008875
	minimum = 0 (at node 0)
	maximum = 0.142 (at node 15)
Injected packet length average = 1
Accepted packet length average = 1
Total in-flight flits = 4 (0 measured)
latency change    = 0.116199
throughput change = 0.197183
Warmed up ...Time used is 1500 cycles
Class 0:
Packet latency average = 24.75
	minimum = 7
	maximum = 54
Network latency average = 24.75
	minimum = 7
	maximum = 54
Slowest packet = 1788
Flit latency average = 24.8088
	minimum = 7
	maximum = 54
Slowest flit = 1788
Fragmentation average = 0
	minimum = 0
	maximum = 0
Injected packet rate average = 0.00875
	minimum = 0.002 (at node 3)
	maximum = 0.02 (at node 9)
Accepted packet rate average = 0.0085
	minimum = 0 (at node 0)
	maximum = 0.136 (at node 15)
Injected flit rate average = 0.00875
	minimum = 0.002 (at node 3)
	maximum = 0.02 (at node 9)
Accepted flit rate average= 0.0085
	minimum = 0 (at node 0)
	maximum = 0.136 (at node 15)
Injected packet length average = 1
Accepted packet length average = 1
Total in-flight flits = 6 (6 measured)
latency change    = 0.103144
throughput change = 0.0441176
Class 0:
Packet latency average = 24.5504
	minimum = 7
	maximum = 54
Network latency average = 24.5504
	minimum = 7
	maximum = 54
Slowest packet = 1788
Flit latency average = 24.5865
	minimum = 7
	maximum = 54
Slowest flit = 1788
Fragmentation average = 0
	minimum = 0
	maximum = 0
Injected packet rate average = 0.008375
	minimum = 0.005 (at node 3)
	maximum = 0.017 (at node 9)
Accepted packet rate average = 0.0083125
	minimum = 0 (at node 0)
	maximum = 0.133 (at node 15)
Injected flit rate average = 0.008375
	minimum = 0.005 (at node 3)
	maximum = 0.017 (at node 9)
Accepted flit rate average= 0.0083125
	minimum = 0 (at node 0)
	maximum = 0.133 (at node 15)
Injected packet length average = 1
Accepted packet length average = 1
Total in-flight flits = 5 (5 measured)
latency change    = 0.00813072
throughput change = 0.0225564
Class 0:
Packet latency average = 24.0796
	minimum = 7
	maximum = 54
Network latency average = 24.0796
	minimum = 7
	maximum = 54
Slowest packet = 1788
Flit latency average = 24.1122
	minimum = 7
	maximum = 54
Slowest flit = 1788
Fragmentation average = 0
	minimum = 0
	maximum = 0
Injected packet rate average = 0.00858333
	minimum = 0.00533333 (at node 0)
	maximum = 0.014 (at node 9)
Accepted packet rate average = 0.00854167
	minimum = 0 (at node 0)
	maximum = 0.136667 (at node 15)
Injected flit rate average = 0.00858333
	minimum = 0.00533333 (at node 0)
	maximum = 0.014 (at node 9)
Accepted flit rate average= 0.00854167
	minimum = 0 (at node 0)
	maximum = 0.136667 (at node 15)
Injected packet length average = 1
Accepted packet length average = 1
Total in-flight flits = 5 (5 measured)
latency change    = 0.0195512
throughput change = 0.0268293
Class 0:
Packet latency average = 24.5897
	minimum = 7
	maximum = 62
Network latency average = 24.5897
	minimum = 7
	maximum = 62
Slowest packet = 2028
Flit latency average = 24.6054
	minimum = 7
	maximum = 62
Slowest flit = 2028
Fragmentation average = 0
	minimum = 0
	maximum = 0
Injected packet rate average = 0.00928125
	minimum = 0.0055 (at node 0)
	maximum = 0.0125 (at node 8)
Accepted packet rate average = 0.0091875
	minimum = 0 (at node 0)
	maximum = 0.147 (at node 15)
Injected flit rate average = 0.00928125
	minimum = 0.0055 (at node 0)
	maximum = 0.0125 (at node 8)
Accepted flit rate average= 0.0091875
	minimum = 0 (at node 0)
	maximum = 0.147 (at node 15)
Injected packet length average = 1
Accepted packet length average = 1
Total in-flight flits = 7 (7 measured)
latency change    = 0.0207426
throughput change = 0.0702948
Class 0:
Packet latency average = 24.2308
	minimum = 7
	maximum = 62
Network latency average = 24.2308
	minimum = 7
	maximum = 62
Slowest packet = 2028
Flit latency average = 24.2473
	minimum = 7
	maximum = 62
Slowest flit = 2028
Fragmentation average = 0
	minimum = 0
	maximum = 0
Injected packet rate average = 0.00915
	minimum = 0.0064 (at node 0)
	maximum = 0.0116 (at node 4)
Accepted packet rate average = 0.0092
	minimum = 0 (at node 0)
	maximum = 0.1472 (at node 15)
Injected flit rate average = 0.00915
	minimum = 0.0064 (at node 0)
	maximum = 0.0116 (at node 4)
Accepted flit rate average= 0.0092
	minimum = 0 (at node 0)
	maximum = 0.1472 (at node 15)
Injected packet length average = 1
Accepted packet length average = 1
Total in-flight flits = 2 (2 measured)
latency change    = 0.0148112
throughput change = 0.0013587
Class 0:
Packet latency average = 23.8839
	minimum = 7
	maximum = 62
Network latency average = 23.8839
	minimum = 7
	maximum = 62
Slowest packet = 2028
Flit latency average = 23.9014
	minimum = 7
	maximum = 62
Slowest flit = 2028
Fragmentation average = 0
	minimum = 0
	maximum = 0
Injected packet rate average = 0.00885417
	minimum = 0.00666667 (at node 0)
	maximum = 0.0106667 (at node 4)
Accepted packet rate average = 0.008875
	minimum = 0 (at node 0)
	maximum = 0.142 (at node 15)
Injected flit rate average = 0.00885417
	minimum = 0.00666667 (at node 0)
	maximum = 0.0106667 (at node 4)
Accepted flit rate average= 0.008875
	minimum = 0 (at node 0)
	maximum = 0.142 (at node 15)
Injected packet length average = 1
Accepted packet length average = 1
Total in-flight flits = 3 (3 measured)
latency change    = 0.0145237
throughput change = 0.0366197
Class 0:
Packet latency average = 24.0909
	minimum = 7
	maximum = 62
Network latency average = 24.0909
	minimum = 7
	maximum = 62
Slowest packet = 2028
Flit latency average = 24.1042
	minimum = 7
	maximum = 62
Slowest flit = 2028
Fragmentation average = 0
	minimum = 0
	maximum = 0
Injected packet rate average = 0.00894643
	minimum = 0.00657143 (at node 14)
	maximum = 0.0108571 (at node 8)
Accepted packet rate average = 0.00891071
	minimum = 0 (at node 0)
	maximum = 0.142571 (at node 15)
Injected flit rate average = 0.00894643
	minimum = 0.00657143 (at node 14)
	maximum = 0.0108571 (at node 8)
Accepted flit rate average= 0.00891071
	minimum = 0 (at node 0)
	maximum = 0.142571 (at node 15)
Injected packet length average = 1
Accepted packet length average = 1
Total in-flight flits = 6 (6 measured)
latency change    = 0.0085934
throughput change = 0.00400802
Draining all recorded packets ...
Draining remaining packets ...
Time taken is 5040 cycles
Class 0:
Packet latency average = 23.8158
	minimum = 7
	maximum = 57
Network latency average = 23.8158
	minimum = 7
	maximum = 57
Slowest packet = 2298
Flit latency average = 23.8158
	minimum = 7
	maximum = 57
Slowest flit = 2298
Fragmentation average = 0
	minimum = 0
	maximum = 0
Injected packet rate average = 0.010125
	minimum = 0 (at node 5)
	maximum = 0.016 (at node 7)
Accepted packet rate average = 0.0095
	minimum = 0 (at node 0)
	maximum = 0.152 (at node 15)
Injected flit rate average = 0.010125
	minimum = 0 (at node 5)
	maximum = 0.016 (at node 7)
Accepted flit rate average= 0.0095
	minimum = 0 (at node 0)
	maximum = 0.152 (at node 15)
Injected packet length average = 1
Accepted packet length average = 1
Total in-flight flits = 5 (0 measured)
latency change    = 1
throughput change = 1
Class 0:
Packet latency average = 23.5605
	minimum = 7
	maximum = 57
Network latency average = 23.5605
	minimum = 7
	maximum = 57
Slowest packet = 2298
Flit latency average = 23.5605
	minimum = 7
	maximum = 57
Slowest flit = 2298
Fragmentation average = 0
	minimum = 0
	maximum = 0
Injected packet rate average = 0.009875
	minimum = 0.005 (at node 5)
	maximum = 0.013 (at node 0)
Accepted packet rate average = 0.0098125
	minimum = 0 (at node 0)
	maximum = 0.157 (at node 15)
Injected flit rate average = 0.009875
	minimum = 0.005 (at node 5)
	maximum = 0.013 (at node 0)
Accepted flit rate average= 0.0098125
	minimum = 0 (at node 0)
	maximum = 0.157 (at node 15)
Injected packet length average = 1
Accepted packet length average = 1
Total in-flight flits = 1 (0 measured)
latency change    = 0.0108351
throughput change = 0.0318471
Class 0:
Packet latency average = 23.12
	minimum = 7
	maximum = 39
Network latency average = 23.12
	minimum = 7
	maximum = 39
Slowest packet = 2497
Flit latency average = 23.12
	minimum = 7
	maximum = 39
Slowest flit = 2497
Fragmentation average = 0
	minimum = 0
	maximum = 0
Injected packet rate average = 0.0095
	minimum = 0.004 (at node 9)
	maximum = 0.016 (at node 1)
Accepted packet rate average = 0.009375
	minimum = 0 (at node 0)
	maximum = 0.15 (at node 15)
Injected flit rate average = 0.0095
	minimum = 0.004 (at node 9)
	maximum = 0.016 (at node 1)
Accepted flit rate average= 0.009375
	minimum = 0 (at node 0)
	maximum = 0.15 (at node 15)
Injected packet length average = 1
Accepted packet length average = 1
Total in-flight flits = 2 (0 measured)
latency change    = 0.0190532
throughput change = 0.0466667
Warmed up ...Time used is 1500 cycles
Class 0:
Packet latency average = 22.4507
	minimum = 7
	maximum = 44
Network latency average = 22.4507
	minimum = 7
	maximum = 44
Slowest packet = 2553
Flit latency average = 22.7123
	minimum = 7
	maximum = 44
Slowest flit = 2553
Fragmentation average = 0
	minimum = 0
	maximum = 0
Injected packet rate average = 0.009375
	minimum = 0.004 (at node 0)
	maximum = 0.016 (at node 15)
Accepted packet rate average = 0.009125
	minimum = 0 (at node 0)
	maximum = 0.146 (at node 15)
Injected flit rate average = 0.009375
	minimum = 0.004 (at node 0)
	maximum = 0.016 (at node 15)
Accepted flit rate average= 0.009125
	minimum = 0 (at node 0)
	maximum = 0.146 (at node 15)
Injected packet length average = 1
Accepted packet length average = 1
Total in-flight flits = 4 (4 measured)
latency change    = 0.0298118
throughput change = 0.0273973
Class 0:
Packet latency average = 22.9878
	minimum = 7
	maximum = 58
Network latency average = 22.9878
	minimum = 7
	maximum = 58
Slowest packet = 2664
Flit latency average = 23.0964
	minimum = 7
	maximum = 58
Slowest flit = 2664
Fragmentation average = 0
	minimum = 0
	maximum = 0
Injected packet rate average = 0.0105
	minimum = 0.006 (at node 3)
	maximum = 0.016 (at node 9)
Accepted packet rate average = 0.010375
	minimum = 0 (at node 0)
	maximum = 0.166 (at node 15)
Injected flit rate average = 0.0105
	minimum = 0.006 (at node 3)
	maximum = 0.016 (at node 9)
Accepted flit rate average= 0.010375
	minimum = 0 (at node 0)
	maximum = 0.166 (at node 15)
Injected packet length average = 1
Accepted packet length average = 1
Total in-flight flits = 4 (4 measured)
latency change    = 0.0233646
throughput change = 0.120482
Class 0:
Packet latency average = 23.0215
	minimum = 7
	maximum = 58
Network latency average = 23.0215
	minimum = 7
	maximum = 58
Slowest packet = 2664
Flit latency average = 23.0979
	minimum = 7
	maximum = 58
Slowest flit = 2664
Fragmentation average = 0
	minimum = 0
	maximum = 0
Injected packet rate average = 0.00983333
	minimum = 0.006 (at node 3)
	maximum = 0.014 (at node 15)
Accepted packet rate average = 0.00979167
	minimum = 0 (at node 0)
	maximum = 0.156667 (at node 15)
Injected flit rate average = 0.00983333
	minimum = 0.006 (at node 3)
	maximum = 0.014 (at node 15)
Accepted flit rate average= 0.00979167
	minimum = 0 (at node 0)
	maximum = 0.156667 (at node 15)
Injected packet length average = 1
Accepted packet length average = 1
Total in-flight flits = 3 (3 measured)
latency change    = 0.00146187
throughput change = 0.0595745
Class 0:
Packet latency average = 22.8536
	minimum = 7
	maximum = 58
Network latency average = 22.8536
	minimum = 7
	maximum = 58
Slowest packet = 2664
Flit latency average = 22.9102
	minimum = 7
	maximum = 58
Slowest flit = 2664
Fragmentation average = 0
	minimum = 0
	maximum = 0
Injected packet rate average = 0.0100938
	minimum = 0.006 (at node 8)
	maximum = 0.014 (at node 15)
Accepted packet rate average = 0.0100938
	minimum = 0 (at node 0)
	maximum = 0.1615 (at node 15)
Injected flit rate average = 0.0100938
	minimum = 0.006 (at node 8)
	maximum = 0.014 (at node 15)
Accepted flit rate average= 0.0100938
	minimum = 0 (at node 0)
	maximum = 0.1615 (at node 15)
Injected packet length average = 1
Accepted packet length average = 1
Total in-flight flits = 2 (2 measured)
latency change    = 0.00734575
throughput change = 0.0299278
Class 0:
Packet latency average = 22.4987
	minimum = 7
	maximum = 58
Network latency average = 22.4987
	minimum = 7
	maximum = 58
Slowest packet = 2664
Flit latency average = 22.5466
	minimum = 7
	maximum = 58
Slowest flit = 2664
Fragmentation average = 0
	minimum = 0
	maximum = 0
Injected packet rate average = 0.010025
	minimum = 0.006 (at node 8)
	maximum = 0.0132 (at node 15)
Accepted packet rate average = 0.009925
	minimum = 0 (at node 0)
	maximum = 0.1588 (at node 15)
Injected flit rate average = 0.010025
	minimum = 0.006 (at node 8)
	maximum = 0.0132 (at node 15)
Accepted flit rate average= 0.009925
	minimum = 0 (at node 0)
	maximum = 0.1588 (at node 15)
Injected packet length average = 1
Accepted packet length average = 1
Total in-flight flits = 6 (6 measured)
latency change    = 0.0157719
throughput change = 0.0170025
Class 0:
Packet latency average = 22.9342
	minimum = 7
	maximum = 62
Network latency average = 22.9342
	minimum = 7
	maximum = 62
Slowest packet = 2961
Flit latency average = 22.9713
	minimum = 7
	maximum = 62
Slowest flit = 2961
Fragmentation average = 0
	minimum = 0
	maximum = 0
Injected packet rate average = 0.0101458
	minimum = 0.00666667 (at node 8)
	maximum = 0.014 (at node 7)
Accepted packet rate average = 0.0101667
	minimum = 0 (at node 0)
	maximum = 0.162667 (at node 15)
Injected flit rate average = 0.0101458
	minimum = 0.00666667 (at node 8)
	maximum = 0.014 (at node 7)
Accepted flit rate average= 0.0101667
	minimum = 0 (at node 0)
	maximum = 0.162667 (at node 15)
Injected packet length average = 1
Accepted packet length average = 1
Total in-flight flits = 1 (1 measured)
latency change    = 0.0189858
throughput change = 0.0237705
Draining all recorded packets ...
Draining remaining packets ...
Time taken is 4505 cycles
Class 0:
Packet latency average = 25.2738
	minimum = 7
	maximum = 72
Network latency average = 25.2738
	minimum = 7
	maximum = 72
Slowest packet = 3022
Flit latency average = 25.2738
	minimum = 7
	maximum = 72
Slowest flit = 3022
Fragmentation average = 0
	minimum = 0
	maximum = 0
Injected packet rate average = 0.01075
	minimum = 0.004 (at node 3)
	maximum = 0.016 (at node 4)
Accepted packet rate average = 0.0105
	minimum = 0 (at node 0)
	maximum = 0.168 (at node 15)
Injected flit rate average = 0.01075
	minimum = 0.004 (at node 3)
	maximum = 0.016 (at node 4)
Accepted flit rate average= 0.0105
	minimum = 0 (at node 0)
	maximum = 0.168 (at node 15)
Injected packet length average = 1
Accepted packet length average = 1
Total in-flight flits = 2 (0 measured)
latency change    = 1
throughput change = 1
Class 0:
Packet latency average = 24.882
	minimum = 7
	maximum = 72
Network latency average = 24.882
	minimum = 7
	maximum = 72
Slowest packet = 3022
Flit latency average = 24.882
	minimum = 7
	maximum = 72
Slowest flit = 3022
Fragmentation average = 0
	minimum = 0
	maximum = 0
Injected packet rate average = 0.0103125
	minimum = 0.003 (at node 3)
	maximum = 0.019 (at node 4)
Accepted packet rate average = 0.0100625
	minimum = 0 (at node 0)
	maximum = 0.161 (at node 15)
Injected flit rate average = 0.0103125
	minimum = 0.003 (at node 3)
	maximum = 0.019 (at node 4)
Accepted flit rate average= 0.0100625
	minimum = 0 (at node 0)
	maximum = 0.161 (at node 15)
Injected packet length average = 1
Accepted packet length average = 1
Total in-flight flits = 4 (0 measured)
latency change    = 0.0157472
throughput change = 0.0434783
Class 0:
Packet latency average = 22.7976
	minimum = 7
	maximum = 39
Network latency average = 22.7976
	minimum = 7
	maximum = 39
Slowest packet = 3214
Flit latency average = 22.7976
	minimum = 7
	maximum = 39
Slowest flit = 3214
Fragmentation average = 0
	minimum = 0
	maximum = 0
Injected packet rate average = 0.010625
	minimum = 0 (at node 0)
	maximum = 0.018 (at node 5)
Accepted packet rate average = 0.0105
	minimum = 0 (at node 0)
	maximum = 0.168 (at node 15)
Injected flit rate average = 0.010625
	minimum = 0 (at node 0)
	maximum = 0.018 (at node 5)
Accepted flit rate average= 0.0105
	minimum = 0 (at node 0)
	maximum = 0.168 (at node 15)
Injected packet length average = 1
Accepted packet length average = 1
Total in-flight flits = 5 (0 measured)
latency change    = 0.0914292
throughput change = 0.0416667
Warmed up ...Time used is 1500 cycles
Class 0:
Packet latency average = 22.2581
	minimum = 7
	maximum = 45
Network latency average = 22.2581
	minimum = 7
	maximum = 45
Slowest packet = 3275
Flit latency average = 23.2537
	minimum = 7
	maximum = 45
Slowest flit = 3275
Fragmentation average = 0
	minimum = 0
	maximum = 0
Injected packet rate average = 0.0085
	minimum = 0.004 (at node 4)
	maximum = 0.014 (at node 7)
Accepted packet rate average = 0.008375
	minimum = 0 (at node 0)
	maximum = 0.134 (at node 15)
Injected flit rate average = 0.0085
	minimum = 0.004 (at node 4)
	maximum = 0.014 (at node 7)
Accepted flit rate average= 0.008375
	minimum = 0 (at node 0)
	maximum = 0.134 (at node 15)
Injected packet length average = 1
Accepted packet length average = 1
Total in-flight flits = 6 (6 measured)
latency change    = 0.0242409
throughput change = 0.253731
Class 0:
Packet latency average = 22.5793
	minimum = 7
	maximum = 45
Network latency average = 22.5793
	minimum = 7
	maximum = 45
Slowest packet = 3275
Flit latency average = 23.0133
	minimum = 7
	maximum = 45
Slowest flit = 3275
Fragmentation average = 0
	minimum = 0
	maximum = 0
Injected packet rate average = 0.009625
	minimum = 0.004 (at node 6)
	maximum = 0.017 (at node 13)
Accepted packet rate average = 0.009375
	minimum = 0 (at node 0)
	maximum = 0.15 (at node 15)
Injected flit rate average = 0.009625
	minimum = 0.004 (at node 6)
	maximum = 0.017 (at node 13)
Accepted flit rate average= 0.009375
	minimum = 0 (at node 0)
	maximum = 0.15 (at node 15)
Injected packet length average = 1
Accepted packet length average = 1
Total in-flight flits = 9 (9 measured)
latency change    = 0.0142274
throughput change = 0.106667
Class 0:
Packet latency average = 24
	minimum = 7
	maximum = 62
Network latency average = 24
	minimum = 7
	maximum = 62
Slowest packet = 3410
Flit latency average = 24.2339
	minimum = 7
	maximum = 62
Slowest flit = 3410
Fragmentation average = 0
	minimum = 0
	maximum = 0
Injected packet rate average = 0.0102083
	minimum = 0.00666667 (at node 0)
	maximum = 0.0173333 (at node 13)
Accepted packet rate average = 0.0103333
	minimum = 0 (at node 0)
	maximum = 0.165333 (at node 15)
Injected flit rate average = 0.0102083
	minimum = 0.00666667 (at node 0)
	maximum = 0.0173333 (at node 13)
Accepted flit rate average= 0.0103333
	minimum = 0 (at node 0)
	maximum = 0.165333 (at node 15)
Injected packet length average = 1
Accepted packet length average = 1
Total in-flight flits = 2 (2 measured)
latency change    = 0.0591954
throughput change = 0.0927419
Class 0:
Packet latency average = 25.0031
	minimum = 7
	maximum = 66
Network latency average = 25.0031
	minimum = 7
	maximum = 66
Slowest packet = 3517
Flit latency average = 25.1667
	minimum = 7
	maximum = 66
Slowest flit = 3517
Fragmentation average = 0
	minimum = 0
	maximum = 0
Injected packet rate average = 0.0100625
	minimum = 0.0065 (at node 14)
	maximum = 0.0145 (at node 13)
Accepted packet rate average = 0.010125
	minimum = 0 (at node 0)
	maximum = 0.162 (at node 15)
Injected flit rate average = 0.0100625
	minimum = 0.0065 (at node 14)
	maximum = 0.0145 (at node 13)
Accepted flit rate average= 0.010125
	minimum = 0 (at node 0)
	maximum = 0.162 (at node 15)
Injected packet length average = 1
Accepted packet length average = 1
Total in-flight flits = 3 (3 measured)
latency change    = 0.0401204
throughput change = 0.0205761
Class 0:
Packet latency average = 24.7386
	minimum = 7
	maximum = 66
Network latency average = 24.7386
	minimum = 7
	maximum = 66
Slowest packet = 3517
Flit latency average = 24.8747
	minimum = 7
	maximum = 66
Slowest flit = 3517
Fragmentation average = 0
	minimum = 0
	maximum = 0
Injected packet rate average = 0.0099
	minimum = 0.0056 (at node 14)
	maximum = 0.0124 (at node 13)
Accepted packet rate average = 0.009975
	minimum = 0 (at node 0)
	maximum = 0.1596 (at node 15)
Injected flit rate average = 0.0099
	minimum = 0.0056 (at node 14)
	maximum = 0.0124 (at node 13)
Accepted flit rate average= 0.009975
	minimum = 0 (at node 0)
	maximum = 0.1596 (at node 15)
Injected packet length average = 1
Accepted packet length average = 1
Total in-flight flits = 2 (2 measured)
latency change    = 0.0106941
throughput change = 0.0150376
Class 0:
Packet latency average = 24.1464
	minimum = 7
	maximum = 66
Network latency average = 24.1464
	minimum = 7
	maximum = 66
Slowest packet = 3517
Flit latency average = 24.265
	minimum = 7
	maximum = 66
Slowest flit = 3517
Fragmentation average = 0
	minimum = 0
	maximum = 0
Injected packet rate average = 0.010125
	minimum = 0.007 (at node 14)
	maximum = 0.0126667 (at node 13)
Accepted packet rate average = 0.0100625
	minimum = 0 (at node 0)
	maximum = 0.161 (at node 15)
Injected flit rate average = 0.010125
	minimum = 0.007 (at node 14)
	maximum = 0.0126667 (at node 13)
Accepted flit rate average= 0.0100625
	minimum = 0 (at node 0)
	maximum = 0.161 (at node 15)
Injected packet length average = 1
Accepted packet length average = 1
Total in-flight flits = 8 (8 measured)
latency change    = 0.0245227
throughput change = 0.00869565
Draining all recorded packets ...
Draining remaining packets ...
Time taken is 4560 cycles
Class 0:
Packet latency average = 23.4167
	minimum = 7
	maximum = 45
Network latency average = 23.4167
	minimum = 7
	maximum = 45
Slowest packet = 3785
Flit latency average = 23.4167
	minimum = 7
	maximum = 45
Slowest flit = 3785
Fragmentation average = 0
	minimum = 0
	maximum = 0
Injected packet rate average = 0.009375
	minimum = 0.004 (at node 9)
	maximum = 0.014 (at node 1)
Accepted packet rate average = 0.009
	minimum = 0 (at node 0)
	maximum = 0.144 (at node 15)
Injected flit rate average = 0.009375
	minimum = 0.004 (at node 9)
	maximum = 0.014 (at node 1)
Accepted flit rate average= 0.009
	minimum = 0 (at node 0)
	maximum = 0.144 (at node 15)
Injected packet length average = 1
Accepted packet length average = 1
Total in-flight flits = 3 (0 measured)
latency change    = 1
throughput change = 1
Class 0:
Packet latency average = 23
	minimum = 7
	maximum = 51
Network latency average = 23
	minimum = 7
	maximum = 51
Slowest packet = 3837
Flit latency average = 23
	minimum = 7
	maximum = 51
Slowest flit = 3837
Fragmentation average = 0
	minimum = 0
	maximum = 0
Injected packet rate average = 0.0096875
	minimum = 0.003 (at node 9)
	maximum = 0.016 (at node 1)
Accepted packet rate average = 0.009375
	minimum = 0 (at node 0)
	maximum = 0.15 (at node 15)
Injected flit rate average = 0.0096875
	minimum = 0.003 (at node 9)
	maximum = 0.016 (at node 1)
Accepted flit rate average= 0.009375
	minimum = 0 (at node 0)
	maximum = 0.15 (at node 15)
Injected packet length average = 1
Accepted packet length average = 1
Total in-flight flits = 5 (0 measured)
latency change    = 0.0181159
throughput change = 0.04
Class 0:
Packet latency average = 24.8261
	minimum = 7
	maximum = 53
Network latency average = 24.8261
	minimum = 7
	maximum = 53
Slowest packet = 3947
Flit latency average = 24.8261
	minimum = 7
	maximum = 53
Slowest flit = 3947
Fragmentation average = 0
	minimum = 0
	maximum = 0
Injected packet rate average = 0.00875
	minimum = 0.004 (at node 8)
	maximum = 0.016 (at node 5)
Accepted packet rate average = 0.008625
	minimum = 0 (at node 0)
	maximum = 0.138 (at node 15)
Injected flit rate average = 0.00875
	minimum = 0.004 (at node 8)
	maximum = 0.016 (at node 5)
Accepted flit rate average= 0.008625
	minimum = 0 (at node 0)
	maximum = 0.138 (at node 15)
Injected packet length average = 1
Accepted packet length average = 1
Total in-flight flits = 6 (0 measured)
latency change    = 0.0735552
throughput change = 0.0869565
Warmed up ...Time used is 1500 cycles
Class 0:
Packet latency average = 22.3226
	minimum = 7
	maximum = 37
Network latency average = 22.3226
	minimum = 7
	maximum = 37
Slowest packet = 3972
Flit latency average = 23.5588
	minimum = 7
	maximum = 46
Slowest flit = 3963
Fragmentation average = 0
	minimum = 0
	maximum = 0
Injected packet rate average = 0.00875
	minimum = 0.002 (at node 4)
	maximum = 0.018 (at node 10)
Accepted packet rate average = 0.0085
	minimum = 0 (at node 0)
	maximum = 0.136 (at node 15)
Injected flit rate average = 0.00875
	minimum = 0.002 (at node 4)
	maximum = 0.018 (at node 10)
Accepted flit rate average= 0.0085
	minimum = 0 (at node 0)
	maximum = 0.136 (at node 15)
Injected packet length average = 1
Accepted packet length average = 1
Total in-flight flits = 8 (8 measured)
latency change    = 0.112151
throughput change = 0.0147059
Class 0:
Packet latency average = 23.6549
	minimum = 7
	maximum = 43
Network latency average = 23.6549
	minimum = 7
	maximum = 43
Slowest packet = 4038
Flit latency average = 24.1689
	minimum = 7
	maximum = 46
Slowest flit = 3963
Fragmentation average = 0
	minimum = 0
	maximum = 0
Injected packet rate average = 0.009125
	minimum = 0.005 (at node 4)
	maximum = 0.017 (at node 10)
Accepted packet rate average = 0.00925
	minimum = 0 (at node 0)
	maximum = 0.148 (at node 15)
Injected flit rate average = 0.009125
	minimum = 0.005 (at node 4)
	maximum = 0.017 (at node 10)
Accepted flit rate average= 0.00925
	minimum = 0 (at node 0)
	maximum = 0.148 (at node 15)
Injected packet length average = 1
Accepted packet length average = 1
Total in-flight flits = 4 (4 measured)
latency change    = 0.0563244
throughput change = 0.0810811
Class 0:
Packet latency average = 25.3025
	minimum = 7
	maximum = 85
Network latency average = 25.3025
	minimum = 7
	maximum = 85
Slowest packet = 4150
Flit latency average = 25.5738
	minimum = 7
	maximum = 85
Slowest flit = 4150
Fragmentation average = 0
	minimum = 0
	maximum = 0
Injected packet rate average = 0.010125
	minimum = 0.00666667 (at node 15)
	maximum = 0.016 (at node 10)
Accepted packet rate average = 0.0101667
	minimum = 0 (at node 0)
	maximum = 0.162667 (at node 15)
Injected flit rate average = 0.010125
	minimum = 0.00666667 (at node 15)
	maximum = 0.016 (at node 10)
Accepted flit rate average= 0.0101667
	minimum = 0 (at node 0)
	maximum = 0.162667 (at node 15)
Injected packet length average = 1
Accepted packet length average = 1
Total in-flight flits = 5 (5 measured)
latency change    = 0.0651157
throughput change = 0.0901639
Class 0:
Packet latency average = 24.872
	minimum = 7
	maximum = 85
Network latency average = 24.872
	minimum = 7
	maximum = 85
Slowest packet = 4150
Flit latency average = 25.0778
	minimum = 7
	maximum = 85
Slowest flit = 4150
Fragmentation average = 0
	minimum = 0
	maximum = 0
Injected packet rate average = 0.010375
	minimum = 0.0065 (at node 15)
	maximum = 0.0165 (at node 3)
Accepted packet rate average = 0.0104375
	minimum = 0 (at node 0)
	maximum = 0.167 (at node 15)
Injected flit rate average = 0.010375
	minimum = 0.0065 (at node 15)
	maximum = 0.0165 (at node 3)
Accepted flit rate average= 0.0104375
	minimum = 0 (at node 0)
	maximum = 0.167 (at node 15)
Injected packet length average = 1
Accepted packet length average = 1
Total in-flight flits = 4 (4 measured)
latency change    = 0.0173115
throughput change = 0.0259481
Class 0:
Packet latency average = 24.1274
	minimum = 7
	maximum = 85
Network latency average = 24.1274
	minimum = 7
	maximum = 85
Slowest packet = 4150
Flit latency average = 24.2977
	minimum = 7
	maximum = 85
Slowest flit = 4150
Fragmentation average = 0
	minimum = 0
	maximum = 0
Injected packet rate average = 0.010625
	minimum = 0.0072 (at node 4)
	maximum = 0.016 (at node 7)
Accepted packet rate average = 0.01075
	minimum = 0 (at node 0)
	maximum = 0.172 (at node 15)
Injected flit rate average = 0.010625
	minimum = 0.0072 (at node 4)
	maximum = 0.016 (at node 7)
Accepted flit rate average= 0.01075
	minimum = 0 (at node 0)
	maximum = 0.172 (at node 15)
Injected packet length average = 1
Accepted packet length average = 1
Total in-flight flits = 1 (1 measured)
latency change    = 0.0308609
throughput change = 0.0290698
Class 0:
Packet latency average = 23.812
	minimum = 7
	maximum = 85
Network latency average = 23.812
	minimum = 7
	maximum = 85
Slowest packet = 4150
Flit latency average = 23.9605
	minimum = 7
	maximum = 85
Slowest flit = 4150
Fragmentation average = 0
	minimum = 0
	maximum = 0
Injected packet rate average = 0.0105
	minimum = 0.007 (at node 0)
	maximum = 0.0156667 (at node 7)
Accepted packet rate average = 0.0105417
	minimum = 0 (at node 0)
	maximum = 0.168667 (at node 15)
Injected flit rate average = 0.0105
	minimum = 0.007 (at node 0)
	maximum = 0.0156667 (at node 7)
Accepted flit rate average= 0.0105417
	minimum = 0 (at node 0)
	maximum = 0.168667 (at node 15)
Injected packet length average = 1
Accepted packet length average = 1
Total in-flight flits = 4 (4 measured)
latency change    = 0.0132437
throughput change = 0.0197628
Draining all recorded packets ...
Draining remaining packets ...
Time taken is 4556 cycles
Class 0:
Packet latency average = 23.1781
	minimum = 7
	maximum = 57
Network latency average = 23.1781
	minimum = 7
	maximum = 57
Slowest packet = 4507
Flit latency average = 23.1781
	minimum = 7
	maximum = 57
Slowest flit = 4507
Fragmentation average = 0
	minimum = 0
	maximum = 0
Injected packet rate average = 0.00975
	minimum = 0.004 (at node 13)
	maximum = 0.014 (at node 1)
Accepted packet rate average = 0.009125
	minimum = 0 (at node 0)
	maximum = 0.146 (at node 15)
Injected flit rate average = 0.00975
	minimum = 0.004 (at node 13)
	maximum = 0.014 (at node 1)
Accepted flit rate average= 0.009125
	minimum = 0 (at node 0)
	maximum = 0.146 (at node 15)
Injected packet length average = 1
Accepted packet length average = 1
Total in-flight flits = 5 (0 measured)
latency change    = 1
throughput change = 1
Class 0:
Packet latency average = 22.8993
	minimum = 7
	maximum = 57
Network latency average = 22.8993
	minimum = 7
	maximum = 57
Slowest packet = 4507
Flit latency average = 22.8993
	minimum = 7
	maximum = 57
Slowest flit = 4507
Fragmentation average = 0
	minimum = 0
	maximum = 0
Injected packet rate average = 0.0095625
	minimum = 0.003 (at node 5)
	maximum = 0.016 (at node 9)
Accepted packet rate average = 0.0093125
	minimum = 0 (at node 0)
	maximum = 0.149 (at node 15)
Injected flit rate average = 0.0095625
	minimum = 0.003 (at node 5)
	maximum = 0.016 (at node 9)
Accepted flit rate average= 0.0093125
	minimum = 0 (at node 0)
	maximum = 0.149 (at node 15)
Injected packet length average = 1
Accepted packet length average = 1
Total in-flight flits = 4 (0 measured)
latency change    = 0.012173
throughput change = 0.0201342
Class 0:
Packet latency average = 23.0337
	minimum = 7
	maximum = 58
Network latency average = 23.0337
	minimum = 7
	maximum = 58
Slowest packet = 4694
Flit latency average = 23.0337
	minimum = 7
	maximum = 58
Slowest flit = 4694
Fragmentation average = 0
	minimum = 0
	maximum = 0
Injected packet rate average = 0.01125
	minimum = 0.002 (at node 3)
	maximum = 0.02 (at node 11)
Accepted packet rate average = 0.011125
	minimum = 0 (at node 0)
	maximum = 0.178 (at node 15)
Injected flit rate average = 0.01125
	minimum = 0.002 (at node 3)
	maximum = 0.02 (at node 11)
Accepted flit rate average= 0.011125
	minimum = 0 (at node 0)
	maximum = 0.178 (at node 15)
Injected packet length average = 1
Accepted packet length average = 1
Total in-flight flits = 5 (0 measured)
latency change    = 0.00583402
throughput change = 0.162921
Warmed up ...Time used is 1500 cycles
Class 0:
Packet latency average = 23.8987
	minimum = 7
	maximum = 46
Network latency average = 23.8987
	minimum = 7
	maximum = 46
Slowest packet = 4786
Flit latency average = 24.131
	minimum = 7
	maximum = 46
Slowest flit = 4786
Fragmentation average = 0
	minimum = 0
	maximum = 0
Injected packet rate average = 0.010875
	minimum = 0.004 (at node 6)
	maximum = 0.018 (at node 3)
Accepted packet rate average = 0.0105
	minimum = 0 (at node 0)
	maximum = 0.168 (at node 15)
Injected flit rate average = 0.010875
	minimum = 0.004 (at node 6)
	maximum = 0.018 (at node 3)
Accepted flit rate average= 0.0105
	minimum = 0 (at node 0)
	maximum = 0.168 (at node 15)
Injected packet length average = 1
Accepted packet length average = 1
Total in-flight flits = 8 (8 measured)
latency change    = 0.0361955
throughput change = 0.0595238
Class 0:
Packet latency average = 27.0885
	minimum = 7
	maximum = 80
Network latency average = 27.0885
	minimum = 7
	maximum = 80
Slowest packet = 4814
Flit latency average = 27.1066
	minimum = 7
	maximum = 80
Slowest flit = 4814
Fragmentation average = 0
	minimum = 0
	maximum = 0
Injected packet rate average = 0.0123125
	minimum = 0.009 (at node 1)
	maximum = 0.018 (at node 8)
Accepted packet rate average = 0.0123125
	minimum = 0 (at node 0)
	maximum = 0.197 (at node 15)
Injected flit rate average = 0.0123125
	minimum = 0.009 (at node 1)
	maximum = 0.018 (at node 8)
Accepted flit rate average= 0.0123125
	minimum = 0 (at node 0)
	maximum = 0.197 (at node 15)
Injected packet length average = 1
Accepted packet length average = 1
Total in-flight flits = 5 (5 measured)
latency change    = 0.117755
throughput change = 0.147208
Class 0:
Packet latency average = 25.7607
	minimum = 7
	maximum = 80
Network latency average = 25.7607
	minimum = 7
	maximum = 80
Slowest packet = 4814
Flit latency average = 25.7965
	minimum = 7
	maximum = 80
Slowest flit = 4814
Fragmentation average = 0
	minimum = 0
	maximum = 0
Injected packet rate average = 0.0117083
	minimum = 0.00866667 (at node 1)
	maximum = 0.0153333 (at node 8)
Accepted packet rate average = 0.011875
	minimum = 0 (at node 0)
	maximum = 0.19 (at node 15)
Injected flit rate average = 0.0117083
	minimum = 0.00866667 (at node 1)
	maximum = 0.0153333 (at node 8)
Accepted flit rate average= 0.011875
	minimum = 0 (at node 0)
	maximum = 0.19 (at node 15)
Injected packet length average = 1
Accepted packet length average = 1
Total in-flight flits = 1 (1 measured)
latency change    = 0.0515447
throughput change = 0.0368421
Class 0:
Packet latency average = 24.8159
	minimum = 7
	maximum = 80
Network latency average = 24.8159
	minimum = 7
	maximum = 80
Slowest packet = 4814
Flit latency average = 24.8564
	minimum = 7
	maximum = 80
Slowest flit = 4814
Fragmentation average = 0
	minimum = 0
	maximum = 0
Injected packet rate average = 0.011625
	minimum = 0.0085 (at node 5)
	maximum = 0.014 (at node 8)
Accepted packet rate average = 0.0115312
	minimum = 0 (at node 0)
	maximum = 0.1845 (at node 15)
Injected flit rate average = 0.011625
	minimum = 0.0085 (at node 5)
	maximum = 0.014 (at node 8)
Accepted flit rate average= 0.0115312
	minimum = 0 (at node 0)
	maximum = 0.1845 (at node 15)
Injected packet length average = 1
Accepted packet length average = 1
Total in-flight flits = 8 (8 measured)
latency change    = 0.0380715
throughput change = 0.0298103
Class 0:
Packet latency average = 24.7982
	minimum = 7
	maximum = 80
Network latency average = 24.7982
	minimum = 7
	maximum = 80
Slowest packet = 4814
Flit latency average = 24.8308
	minimum = 7
	maximum = 80
Slowest flit = 4814
Fragmentation average = 0
	minimum = 0
	maximum = 0
Injected packet rate average = 0.011525
	minimum = 0.0092 (at node 5)
	maximum = 0.014 (at node 3)
Accepted packet rate average = 0.011525
	minimum = 0 (at node 0)
	maximum = 0.1844 (at node 15)
Injected flit rate average = 0.011525
	minimum = 0.0092 (at node 5)
	maximum = 0.014 (at node 3)
Accepted flit rate average= 0.011525
	minimum = 0 (at node 0)
	maximum = 0.1844 (at node 15)
Injected packet length average = 1
Accepted packet length average = 1
Total in-flight flits = 5 (5 measured)
latency change    = 0.000713294
throughput change = 0.000542299
Class 0:
Packet latency average = 24.2378
	minimum = 7
	maximum = 80
Network latency average = 24.2378
	minimum = 7
	maximum = 80
Slowest packet = 4814
Flit latency average = 24.2709
	minimum = 7
	maximum = 80
Slowest flit = 4814
Fragmentation average = 0
	minimum = 0
	maximum = 0
Injected packet rate average = 0.0111667
	minimum = 0.008 (at node 5)
	maximum = 0.0133333 (at node 3)
Accepted packet rate average = 0.0112292
	minimum = 0 (at node 0)
	maximum = 0.179667 (at node 15)
Injected flit rate average = 0.0111667
	minimum = 0.008 (at node 5)
	maximum = 0.0133333 (at node 3)
Accepted flit rate average= 0.0112292
	minimum = 0 (at node 0)
	maximum = 0.179667 (at node 15)
Injected packet length average = 1
Accepted packet length average = 1
Total in-flight flits = 2 (2 measured)
latency change    = 0.0231216
throughput change = 0.0263451
Draining all recorded packets ...
Draining remaining packets ...
Time taken is 4536 cycles
Class 0:
Packet latency average = 24.3108
	minimum = 12
	maximum = 51
Network latency average = 24.3108
	minimum = 12
	maximum = 51
Slowest packet = 5265
Flit latency average = 24.3108
	minimum = 12
	maximum = 51
Slowest flit = 5265
Fragmentation average = 0
	minimum = 0
	maximum = 0
Injected packet rate average = 0.01
	minimum = 0 (at node 15)
	maximum = 0.024 (at node 6)
Accepted packet rate average = 0.00925
	minimum = 0 (at node 0)
	maximum = 0.148 (at node 15)
Injected flit rate average = 0.01
	minimum = 0 (at node 15)
	maximum = 0.024 (at node 6)
Accepted flit rate average= 0.00925
	minimum = 0 (at node 0)
	maximum = 0.148 (at node 15)
Injected packet length average = 1
Accepted packet length average = 1
Total in-flight flits = 6 (0 measured)
latency change    = 1
throughput change = 1
Class 0:
Packet latency average = 24.3879
	minimum = 7
	maximum = 51
Network latency average = 24.3879
	minimum = 7
	maximum = 51
Slowest packet = 5265
Flit latency average = 24.3879
	minimum = 7
	maximum = 51
Slowest flit = 5265
Fragmentation average = 0
	minimum = 0
	maximum = 0
Injected packet rate average = 0.01075
	minimum = 0.005 (at node 0)
	maximum = 0.016 (at node 1)
Accepted packet rate average = 0.0103125
	minimum = 0 (at node 0)
	maximum = 0.165 (at node 15)
Injected flit rate average = 0.01075
	minimum = 0.005 (at node 0)
	maximum = 0.016 (at node 1)
Accepted flit rate average= 0.0103125
	minimum = 0 (at node 0)
	maximum = 0.165 (at node 15)
Injected packet length average = 1
Accepted packet length average = 1
Total in-flight flits = 7 (0 measured)
latency change    = 0.00316009
throughput change = 0.10303
Class 0:
Packet latency average = 24.0723
	minimum = 7
	maximum = 51
Network latency average = 24.0723
	minimum = 7
	maximum = 51
Slowest packet = 5431
Flit latency average = 24.0723
	minimum = 7
	maximum = 51
Slowest flit = 5431
Fragmentation average = 0
	minimum = 0
	maximum = 0
Injected packet rate average = 0.009875
	minimum = 0.002 (at node 8)
	maximum = 0.022 (at node 11)
Accepted packet rate average = 0.010375
	minimum = 0 (at node 0)
	maximum = 0.166 (at node 15)
Injected flit rate average = 0.009875
	minimum = 0.002 (at node 8)
	maximum = 0.022 (at node 11)
Accepted flit rate average= 0.010375
	minimum = 0 (at node 0)
	maximum = 0.166 (at node 15)
Injected packet length average = 1
Accepted packet length average = 1
Total in-flight flits = 3 (0 measured)
latency change    = 0.0131101
throughput change = 0.0060241
Warmed up ...Time used is 1500 cycles
Class 0:
Packet latency average = 23.407
	minimum = 7
	maximum = 46
Network latency average = 23.407
	minimum = 7
	maximum = 46
Slowest packet = 5568
Flit latency average = 23.2921
	minimum = 7
	maximum = 46
Slowest flit = 5568
Fragmentation average = 0
	minimum = 0
	maximum = 0
Injected packet rate average = 0.011
	minimum = 0.006 (at node 1)
	maximum = 0.018 (at node 7)
Accepted packet rate average = 0.011125
	minimum = 0 (at node 0)
	maximum = 0.178 (at node 15)
Injected flit rate average = 0.011
	minimum = 0.006 (at node 1)
	maximum = 0.018 (at node 7)
Accepted flit rate average= 0.011125
	minimum = 0 (at node 0)
	maximum = 0.178 (at node 15)
Injected packet length average = 1
Accepted packet length average = 1
Total in-flight flits = 2 (2 measured)
latency change    = 0.0284237
throughput change = 0.0674157
Class 0:
Packet latency average = 24.3313
	minimum = 7
	maximum = 49
Network latency average = 24.3313
	minimum = 7
	maximum = 49
Slowest packet = 5673
Flit latency average = 24.2544
	minimum = 7
	maximum = 49
Slowest flit = 5673
Fragmentation average = 0
	minimum = 0
	maximum = 0
Injected packet rate average = 0.01075
	minimum = 0.006 (at node 10)
	maximum = 0.015 (at node 3)
Accepted packet rate average = 0.0105625
	minimum = 0 (at node 0)
	maximum = 0.169 (at node 15)
Injected flit rate average = 0.01075
	minimum = 0.006 (at node 10)
	maximum = 0.015 (at node 3)
Accepted flit rate average= 0.0105625
	minimum = 0 (at node 0)
	maximum = 0.169 (at node 15)
Injected packet length average = 1
Accepted packet length average = 1
Total in-flight flits = 6 (6 measured)
latency change    = 0.0379901
throughput change = 0.0532544
Class 0:
Packet latency average = 24.3347
	minimum = 7
	maximum = 49
Network latency average = 24.3347
	minimum = 7
	maximum = 49
Slowest packet = 5673
Flit latency average = 24.2803
	minimum = 7
	maximum = 49
Slowest flit = 5673
Fragmentation average = 0
	minimum = 0
	maximum = 0
Injected packet rate average = 0.00991667
	minimum = 0.006 (at node 15)
	maximum = 0.0146667 (at node 8)
Accepted packet rate average = 0.00995833
	minimum = 0 (at node 0)
	maximum = 0.159333 (at node 15)
Injected flit rate average = 0.00991667
	minimum = 0.006 (at node 15)
	maximum = 0.0146667 (at node 8)
Accepted flit rate average= 0.00995833
	minimum = 0 (at node 0)
	maximum = 0.159333 (at node 15)
Injected packet length average = 1
Accepted packet length average = 1
Total in-flight flits = 2 (2 measured)
latency change    = 0.000140559
throughput change = 0.0606695
Class 0:
Packet latency average = 24.5963
	minimum = 7
	maximum = 56
Network latency average = 24.5963
	minimum = 7
	maximum = 56
Slowest packet = 5805
Flit latency average = 24.5545
	minimum = 7
	maximum = 56
Slowest flit = 5805
Fragmentation average = 0
	minimum = 0
	maximum = 0
Injected packet rate average = 0.01025
	minimum = 0.007 (at node 12)
	maximum = 0.016 (at node 8)
Accepted packet rate average = 0.0103125
	minimum = 0 (at node 0)
	maximum = 0.165 (at node 15)
Injected flit rate average = 0.01025
	minimum = 0.007 (at node 12)
	maximum = 0.016 (at node 8)
Accepted flit rate average= 0.0103125
	minimum = 0 (at node 0)
	maximum = 0.165 (at node 15)
Injected packet length average = 1
Accepted packet length average = 1
Total in-flight flits = 1 (1 measured)
latency change    = 0.0106351
throughput change = 0.0343434
Class 0:
Packet latency average = 24.0711
	minimum = 7
	maximum = 56
Network latency average = 24.0711
	minimum = 7
	maximum = 56
Slowest packet = 5805
Flit latency average = 24.0414
	minimum = 7
	maximum = 56
Slowest flit = 5805
Fragmentation average = 0
	minimum = 0
	maximum = 0
Injected packet rate average = 0.0103
	minimum = 0.0076 (at node 12)
	maximum = 0.0152 (at node 8)
Accepted packet rate average = 0.010275
	minimum = 0 (at node 0)
	maximum = 0.1644 (at node 15)
Injected flit rate average = 0.0103
	minimum = 0.0076 (at node 12)
	maximum = 0.0152 (at node 8)
Accepted flit rate average= 0.010275
	minimum = 0 (at node 0)
	maximum = 0.1644 (at node 15)
Injected packet length average = 1
Accepted packet length average = 1
Total in-flight flits = 4 (4 measured)
latency change    = 0.0218209
throughput change = 0.00364964
Class 0:
Packet latency average = 23.8515
	minimum = 7
	maximum = 56
Network latency average = 23.8515
	minimum = 7
	maximum = 56
Slowest packet = 5805
Flit latency average = 23.8274
	minimum = 7
	maximum = 56
Slowest flit = 5805
Fragmentation average = 0
	minimum = 0
	maximum = 0
Injected packet rate average = 0.01
	minimum = 0.007 (at node 12)
	maximum = 0.0136667 (at node 8)
Accepted packet rate average = 0.0100208
	minimum = 0 (at node 0)
	maximum = 0.160333 (at node 15)
Injected flit rate average = 0.01
	minimum = 0.007 (at node 12)
	maximum = 0.0136667 (at node 8)
Accepted flit rate average= 0.0100208
	minimum = 0 (at node 0)
	maximum = 0.160333 (at node 15)
Injected packet length average = 1
Accepted packet length average = 1
Total in-flight flits = 2 (2 measured)
latency change    = 0.00920757
throughput change = 0.0253638
Draining all recorded packets ...
Draining remaining packets ...
Time taken is 4534 cycles
Class 0:
Packet latency average = 23.7627
	minimum = 7
	maximum = 43
Network latency average = 23.7627
	minimum = 7
	maximum = 43
Slowest packet = 6028
Flit latency average = 23.7627
	minimum = 7
	maximum = 43
Slowest flit = 6028
Fragmentation average = 0
	minimum = 0
	maximum = 0
Injected packet rate average = 0.008
	minimum = 0.002 (at node 8)
	maximum = 0.02 (at node 2)
Accepted packet rate average = 0.007375
	minimum = 0 (at node 0)
	maximum = 0.118 (at node 15)
Injected flit rate average = 0.008
	minimum = 0.002 (at node 8)
	maximum = 0.02 (at node 2)
Accepted flit rate average= 0.007375
	minimum = 0 (at node 0)
	maximum = 0.118 (at node 15)
Injected packet length average = 1
Accepted packet length average = 1
Total in-flight flits = 5 (0 measured)
latency change    = 1
throughput change = 1
Class 0:
Packet latency average = 23.5827
	minimum = 7
	maximum = 43
Network latency average = 23.5827
	minimum = 7
	maximum = 43
Slowest packet = 6028
Flit latency average = 23.5827
	minimum = 7
	maximum = 43
Slowest flit = 6028
Fragmentation average = 0
	minimum = 0
	maximum = 0
Injected packet rate average = 0.008875
	minimum = 0.006 (at node 3)
	maximum = 0.017 (at node 1)
Accepted packet rate average = 0.0086875
	minimum = 0 (at node 0)
	maximum = 0.139 (at node 15)
Injected flit rate average = 0.008875
	minimum = 0.006 (at node 3)
	maximum = 0.017 (at node 1)
Accepted flit rate average= 0.0086875
	minimum = 0 (at node 0)
	maximum = 0.139 (at node 15)
Injected packet length average = 1
Accepted packet length average = 1
Total in-flight flits = 3 (0 measured)
latency change    = 0.00763177
throughput change = 0.151079
Class 0:
Packet latency average = 30.9111
	minimum = 7
	maximum = 87
Network latency average = 30.9111
	minimum = 7
	maximum = 87
Slowest packet = 6166
Flit latency average = 30.9111
	minimum = 7
	maximum = 87
Slowest flit = 6166
Fragmentation average = 0
	minimum = 0
	maximum = 0
Injected packet rate average = 0.0115
	minimum = 0.006 (at node 5)
	maximum = 0.022 (at node 7)
Accepted packet rate average = 0.01125
	minimum = 0 (at node 0)
	maximum = 0.18 (at node 15)
Injected flit rate average = 0.0115
	minimum = 0.006 (at node 5)
	maximum = 0.022 (at node 7)
Accepted flit rate average= 0.01125
	minimum = 0 (at node 0)
	maximum = 0.18 (at node 15)
Injected packet length average = 1
Accepted packet length average = 1
Total in-flight flits = 5 (0 measured)
latency change    = 0.237079
throughput change = 0.227778
Warmed up ...Time used is 1500 cycles
Class 0:
Packet latency average = 22.6389
	minimum = 7
	maximum = 37
Network latency average = 22.6389
	minimum = 7
	maximum = 37
Slowest packet = 6235
Flit latency average = 22.4026
	minimum = 7
	maximum = 37
Slowest flit = 6235
Fragmentation average = 0
	minimum = 0
	maximum = 0
Injected packet rate average = 0.009625
	minimum = 0.002 (at node 2)
	maximum = 0.022 (at node 11)
Accepted packet rate average = 0.009625
	minimum = 0 (at node 0)
	maximum = 0.154 (at node 15)
Injected flit rate average = 0.009625
	minimum = 0.002 (at node 2)
	maximum = 0.022 (at node 11)
Accepted flit rate average= 0.009625
	minimum = 0 (at node 0)
	maximum = 0.154 (at node 15)
Injected packet length average = 1
Accepted packet length average = 1
Total in-flight flits = 5 (5 measured)
latency change    = 0.365399
throughput change = 0.168831
Class 0:
Packet latency average = 23.268
	minimum = 7
	maximum = 44
Network latency average = 23.268
	minimum = 7
	maximum = 44
Slowest packet = 6324
Flit latency average = 23.1329
	minimum = 7
	maximum = 44
Slowest flit = 6324
Fragmentation average = 0
	minimum = 0
	maximum = 0
Injected packet rate average = 0.00975
	minimum = 0.006 (at node 2)
	maximum = 0.013 (at node 11)
Accepted packet rate average = 0.009875
	minimum = 0 (at node 0)
	maximum = 0.158 (at node 15)
Injected flit rate average = 0.00975
	minimum = 0.006 (at node 2)
	maximum = 0.013 (at node 11)
Accepted flit rate average= 0.009875
	minimum = 0 (at node 0)
	maximum = 0.158 (at node 15)
Injected packet length average = 1
Accepted packet length average = 1
Total in-flight flits = 3 (3 measured)
latency change    = 0.0270365
throughput change = 0.0253165
Class 0:
Packet latency average = 23.2358
	minimum = 7
	maximum = 58
Network latency average = 23.2358
	minimum = 7
	maximum = 58
Slowest packet = 6419
Flit latency average = 23.1382
	minimum = 7
	maximum = 58
Slowest flit = 6419
Fragmentation average = 0
	minimum = 0
	maximum = 0
Injected packet rate average = 0.00891667
	minimum = 0.004 (at node 13)
	maximum = 0.014 (at node 11)
Accepted packet rate average = 0.00904167
	minimum = 0 (at node 0)
	maximum = 0.144667 (at node 15)
Injected flit rate average = 0.00891667
	minimum = 0.004 (at node 13)
	maximum = 0.014 (at node 11)
Accepted flit rate average= 0.00904167
	minimum = 0 (at node 0)
	maximum = 0.144667 (at node 15)
Injected packet length average = 1
Accepted packet length average = 1
Total in-flight flits = 2 (2 measured)
latency change    = 0.00138255
throughput change = 0.0921659
Class 0:
Packet latency average = 24.2351
	minimum = 7
	maximum = 58
Network latency average = 24.2351
	minimum = 7
	maximum = 58
Slowest packet = 6419
Flit latency average = 24.1448
	minimum = 7
	maximum = 58
Slowest flit = 6419
Fragmentation average = 0
	minimum = 0
	maximum = 0
Injected packet rate average = 0.0090625
	minimum = 0.0065 (at node 7)
	maximum = 0.0135 (at node 0)
Accepted packet rate average = 0.0090625
	minimum = 0 (at node 0)
	maximum = 0.145 (at node 15)
Injected flit rate average = 0.0090625
	minimum = 0.0065 (at node 7)
	maximum = 0.0135 (at node 0)
Accepted flit rate average= 0.0090625
	minimum = 0 (at node 0)
	maximum = 0.145 (at node 15)
Injected packet length average = 1
Accepted packet length average = 1
Total in-flight flits = 5 (5 measured)
latency change    = 0.0412311
throughput change = 0.00229885
Class 0:
Packet latency average = 24.0997
	minimum = 7
	maximum = 58
Network latency average = 24.0997
	minimum = 7
	maximum = 58
Slowest packet = 6419
Flit latency average = 24.0319
	minimum = 7
	maximum = 58
Slowest flit = 6419
Fragmentation average = 0
	minimum = 0
	maximum = 0
Injected packet rate average = 0.009425
	minimum = 0.0064 (at node 13)
	maximum = 0.012 (at node 1)
Accepted packet rate average = 0.0094
	minimum = 0 (at node 0)
	maximum = 0.1504 (at node 15)
Injected flit rate average = 0.009425
	minimum = 0.0064 (at node 13)
	maximum = 0.012 (at node 1)
Accepted flit rate average= 0.0094
	minimum = 0 (at node 0)
	maximum = 0.1504 (at node 15)
Injected packet length average = 1
Accepted packet length average = 1
Total in-flight flits = 6 (6 measured)
latency change    = 0.00561655
throughput change = 0.0359043
Class 0:
Packet latency average = 23.9688
	minimum = 7
	maximum = 58
Network latency average = 23.9688
	minimum = 7
	maximum = 58
Slowest packet = 6419
Flit latency average = 23.9139
	minimum = 7
	maximum = 58
Slowest flit = 6419
Fragmentation average = 0
	minimum = 0
	maximum = 0
Injected packet rate average = 0.00952083
	minimum = 0.00633333 (at node 7)
	maximum = 0.0126667 (at node 0)
Accepted packet rate average = 0.0094375
	minimum = 0 (at node 0)
	maximum = 0.151 (at node 15)
Injected flit rate average = 0.00952083
	minimum = 0.00633333 (at node 7)
	maximum = 0.0126667 (at node 0)
Accepted flit rate average= 0.0094375
	minimum = 0 (at node 0)
	maximum = 0.151 (at node 15)
Injected packet length average = 1
Accepted packet length average = 1
Total in-flight flits = 9 (9 measured)
latency change    = 0.00546463
throughput change = 0.00397351
Draining all recorded packets ...
Draining remaining packets ...
Time taken is 4544 cycles
Class 0:
Packet latency average = 26.5682
	minimum = 7
	maximum = 78
Network latency average = 26.5682
	minimum = 7
	maximum = 78
Slowest packet = 6723
Flit latency average = 26.5682
	minimum = 7
	maximum = 78
Slowest flit = 6723
Fragmentation average = 0
	minimum = 0
	maximum = 0
Injected packet rate average = 0.011375
	minimum = 0.006 (at node 13)
	maximum = 0.02 (at node 4)
Accepted packet rate average = 0.011
	minimum = 0 (at node 0)
	maximum = 0.176 (at node 15)
Injected flit rate average = 0.011375
	minimum = 0.006 (at node 13)
	maximum = 0.02 (at node 4)
Accepted flit rate average= 0.011
	minimum = 0 (at node 0)
	maximum = 0.176 (at node 15)
Injected packet length average = 1
Accepted packet length average = 1
Total in-flight flits = 3 (0 measured)
latency change    = 1
throughput change = 1
Class 0:
Packet latency average = 25.4146
	minimum = 7
	maximum = 78
Network latency average = 25.4146
	minimum = 7
	maximum = 78
Slowest packet = 6723
Flit latency average = 25.4146
	minimum = 7
	maximum = 78
Slowest flit = 6723
Fragmentation average = 0
	minimum = 0
	maximum = 0
Injected packet rate average = 0.0103125
	minimum = 0.007 (at node 3)
	maximum = 0.016 (at node 4)
Accepted packet rate average = 0.01025
	minimum = 0 (at node 0)
	maximum = 0.164 (at node 15)
Injected flit rate average = 0.0103125
	minimum = 0.007 (at node 3)
	maximum = 0.016 (at node 4)
Accepted flit rate average= 0.01025
	minimum = 0 (at node 0)
	maximum = 0.164 (at node 15)
Injected packet length average = 1
Accepted packet length average = 1
Total in-flight flits = 1 (0 measured)
latency change    = 0.0453891
throughput change = 0.0731707
Class 0:
Packet latency average = 25.1923
	minimum = 7
	maximum = 70
Network latency average = 25.1923
	minimum = 7
	maximum = 70
Slowest packet = 6867
Flit latency average = 25.1923
	minimum = 7
	maximum = 70
Slowest flit = 6867
Fragmentation average = 0
	minimum = 0
	maximum = 0
Injected packet rate average = 0.010375
	minimum = 0.004 (at node 14)
	maximum = 0.02 (at node 8)
Accepted packet rate average = 0.00975
	minimum = 0 (at node 0)
	maximum = 0.156 (at node 15)
Injected flit rate average = 0.010375
	minimum = 0.004 (at node 14)
	maximum = 0.02 (at node 8)
Accepted flit rate average= 0.00975
	minimum = 0 (at node 0)
	maximum = 0.156 (at node 15)
Injected packet length average = 1
Accepted packet length average = 1
Total in-flight flits = 6 (0 measured)
latency change    = 0.00882517
throughput change = 0.0512821
Warmed up ...Time used is 1500 cycles
Class 0:
Packet latency average = 25.4731
	minimum = 7
	maximum = 57
Network latency average = 25.4731
	minimum = 7
	maximum = 57
Slowest packet = 7012
Flit latency average = 26.0404
	minimum = 7
	maximum = 57
Slowest flit = 7012
Fragmentation average = 0
	minimum = 0
	maximum = 0
Injected packet rate average = 0.012125
	minimum = 0.006 (at node 6)
	maximum = 0.018 (at node 11)
Accepted packet rate average = 0.012375
	minimum = 0 (at node 0)
	maximum = 0.198 (at node 15)
Injected flit rate average = 0.012125
	minimum = 0.006 (at node 6)
	maximum = 0.018 (at node 11)
Accepted flit rate average= 0.012375
	minimum = 0 (at node 0)
	maximum = 0.198 (at node 15)
Injected packet length average = 1
Accepted packet length average = 1
Total in-flight flits = 4 (4 measured)
latency change    = 0.0110238
throughput change = 0.212121
Class 0:
Packet latency average = 24.0774
	minimum = 7
	maximum = 57
Network latency average = 24.0774
	minimum = 7
	maximum = 57
Slowest packet = 7012
Flit latency average = 24.4483
	minimum = 7
	maximum = 57
Slowest flit = 7012
Fragmentation average = 0
	minimum = 0
	maximum = 0
Injected packet rate average = 0.0109375
	minimum = 0.007 (at node 1)
	maximum = 0.015 (at node 3)
Accepted packet rate average = 0.010875
	minimum = 0 (at node 0)
	maximum = 0.174 (at node 15)
Injected flit rate average = 0.0109375
	minimum = 0.007 (at node 1)
	maximum = 0.015 (at node 3)
Accepted flit rate average= 0.010875
	minimum = 0 (at node 0)
	maximum = 0.174 (at node 15)
Injected packet length average = 1
Accepted packet length average = 1
Total in-flight flits = 7 (7 measured)
latency change    = 0.0579688
throughput change = 0.137931
Class 0:
Packet latency average = 24.025
	minimum = 7
	maximum = 57
Network latency average = 24.025
	minimum = 7
	maximum = 57
Slowest packet = 7012
Flit latency average = 24.2886
	minimum = 7
	maximum = 57
Slowest flit = 7012
Fragmentation average = 0
	minimum = 0
	maximum = 0
Injected packet rate average = 0.0100417
	minimum = 0.00733333 (at node 2)
	maximum = 0.0133333 (at node 15)
Accepted packet rate average = 0.01025
	minimum = 0 (at node 0)
	maximum = 0.164 (at node 15)
Injected flit rate average = 0.0100417
	minimum = 0.00733333 (at node 2)
	maximum = 0.0133333 (at node 15)
Accepted flit rate average= 0.01025
	minimum = 0 (at node 0)
	maximum = 0.164 (at node 15)
Injected packet length average = 1
Accepted packet length average = 1
Total in-flight flits = 1 (1 measured)
latency change    = 0.00218027
throughput change = 0.0609756
Class 0:
Packet latency average = 24.0376
	minimum = 7
	maximum = 57
Network latency average = 24.0376
	minimum = 7
	maximum = 57
Slowest packet = 7012
Flit latency average = 24.2369
	minimum = 7
	maximum = 57
Slowest flit = 7012
Fragmentation average = 0
	minimum = 0
	maximum = 0
Injected packet rate average = 0.0100313
	minimum = 0.007 (at node 2)
	maximum = 0.0155 (at node 4)
Accepted packet rate average = 0.0101563
	minimum = 0 (at node 0)
	maximum = 0.1625 (at node 15)
Injected flit rate average = 0.0100313
	minimum = 0.007 (at node 2)
	maximum = 0.0155 (at node 4)
Accepted flit rate average= 0.0101563
	minimum = 0 (at node 0)
	maximum = 0.1625 (at node 15)
Injected packet length average = 1
Accepted packet length average = 1
Total in-flight flits = 2 (2 measured)
latency change    = 0.000524909
throughput change = 0.00923077
Class 0:
Packet latency average = 24.3036
	minimum = 7
	maximum = 57
Network latency average = 24.3036
	minimum = 7
	maximum = 57
Slowest packet = 7012
Flit latency average = 24.4623
	minimum = 7
	maximum = 57
Slowest flit = 7012
Fragmentation average = 0
	minimum = 0
	maximum = 0
Injected packet rate average = 0.0099
	minimum = 0.0072 (at node 2)
	maximum = 0.014 (at node 4)
Accepted packet rate average = 0.00995
	minimum = 0 (at node 0)
	maximum = 0.1592 (at node 15)
Injected flit rate average = 0.0099
	minimum = 0.0072 (at node 2)
	maximum = 0.014 (at node 4)
Accepted flit rate average= 0.00995
	minimum = 0 (at node 0)
	maximum = 0.1592 (at node 15)
Injected packet length average = 1
Accepted packet length average = 1
Total in-flight flits = 4 (4 measured)
latency change    = 0.010943
throughput change = 0.0207286
Class 0:
Packet latency average = 24.2704
	minimum = 7
	maximum = 57
Network latency average = 24.2704
	minimum = 7
	maximum = 57
Slowest packet = 7012
Flit latency average = 24.4047
	minimum = 7
	maximum = 57
Slowest flit = 7012
Fragmentation average = 0
	minimum = 0
	maximum = 0
Injected packet rate average = 0.00975
	minimum = 0.00733333 (at node 2)
	maximum = 0.0136667 (at node 4)
Accepted packet rate average = 0.00983333
	minimum = 0 (at node 0)
	maximum = 0.157333 (at node 15)
Injected flit rate average = 0.00975
	minimum = 0.00733333 (at node 2)
	maximum = 0.0136667 (at node 4)
Accepted flit rate average= 0.00983333
	minimum = 0 (at node 0)
	maximum = 0.157333 (at node 15)
Injected packet length average = 1
Accepted packet length average = 1
Total in-flight flits = 2 (2 measured)
latency change    = 0.00136731
throughput change = 0.0118644
Draining all recorded packets ...
Draining remaining packets ...
Time taken is 4544 cycles
Class 0:
Packet latency average = 25.963
	minimum = 7
	maximum = 66
Network latency average = 25.963
	minimum = 7
	maximum = 66
Slowest packet = 7425
Flit latency average = 25.963
	minimum = 7
	maximum = 66
Slowest flit = 7425
Fragmentation average = 0
	minimum = 0
	maximum = 0
Injected packet rate average = 0.0105
	minimum = 0 (at node 1)
	maximum = 0.022 (at node 2)
Accepted packet rate average = 0.010125
	minimum = 0 (at node 0)
	maximum = 0.162 (at node 15)
Injected flit rate average = 0.0105
	minimum = 0 (at node 1)
	maximum = 0.022 (at node 2)
Accepted flit rate average= 0.010125
	minimum = 0 (at node 0)
	maximum = 0.162 (at node 15)
Injected packet length average = 1
Accepted packet length average = 1
Total in-flight flits = 3 (0 measured)
latency change    = 1
throughput change = 1
Class 0:
Packet latency average = 24.6562
	minimum = 7
	maximum = 66
Network latency average = 24.6562
	minimum = 7
	maximum = 66
Slowest packet = 7425
Flit latency average = 24.6562
	minimum = 7
	maximum = 66
Slowest flit = 7425
Fragmentation average = 0
	minimum = 0
	maximum = 0
Injected packet rate average = 0.010125
	minimum = 0.003 (at node 1)
	maximum = 0.016 (at node 12)
Accepted packet rate average = 0.01
	minimum = 0 (at node 0)
	maximum = 0.16 (at node 15)
Injected flit rate average = 0.010125
	minimum = 0.003 (at node 1)
	maximum = 0.016 (at node 12)
[...]
Injected packet length average = 1
Accepted packet length average = 1
Total in-flight flits = 3 (3 measured)
latency change    = 0.0422138
throughput change = 0.0553191
Class 0:
Packet latency average = 23.6646
	minimum = 7
	maximum = 71
Network latency average = 23.6646
	minimum = 7
	maximum = 71
Slowest packet = 33251
Flit latency average = 23.6646
	minimum = 7
	maximum = 71
Slowest flit = 33251
Fragmentation average = 0
	minimum = 0
	maximum = 0
Injected packet rate average = 0.01025
	minimum = 0.0055 (at node 8)
	maximum = 0.0145 (at node 1)
Accepted packet rate average = 0.0100625
	minimum = 0 (at node 0)
	maximum = 0.161 (at node 15)
Injected flit rate average = 0.01025
	minimum = 0.0055 (at node 8)
	maximum = 0.0145 (at node 1)
Accepted flit rate average= 0.0100625
	minimum = 0 (at node 0)
	maximum = 0.161 (at node 15)
Injected packet length average = 1
Accepted packet length average = 1
Total in-flight flits = 6 (6 measured)
latency change    = 0.0451667
throughput change = 0.0269151
Class 0:
Packet latency average = 23.5852
	minimum = 7
	maximum = 71
Network latency average = 23.5852
	minimum = 7
	maximum = 71
Slowest packet = 33251
Flit latency average = 23.5852
	minimum = 7
	maximum = 71
Slowest flit = 33251
Fragmentation average = 0
	minimum = 0
	maximum = 0
Injected packet rate average = 0.010225
	minimum = 0.0068 (at node 4)
	maximum = 0.0128 (at node 1)
Accepted packet rate average = 0.010125
	minimum = 0 (at node 0)
	maximum = 0.162 (at node 15)
Injected flit rate average = 0.010225
	minimum = 0.0068 (at node 4)
	maximum = 0.0128 (at node 1)
Accepted flit rate average= 0.010125
	minimum = 0 (at node 0)
	maximum = 0.162 (at node 15)
Injected packet length average = 1
Accepted packet length average = 1
Total in-flight flits = 4 (4 measured)
latency change    = 0.00336699
throughput change = 0.00617284
Class 0:
Packet latency average = 23.6562
	minimum = 7
	maximum = 71
Network latency average = 23.6562
	minimum = 7
	maximum = 71
Slowest packet = 33251
Flit latency average = 23.6562
	minimum = 7
	maximum = 71
Slowest flit = 33251
Fragmentation average = 0
	minimum = 0
	maximum = 0
Injected packet rate average = 0.0100833
	minimum = 0.00666667 (at node 4)
	maximum = 0.013 (at node 11)
Accepted packet rate average = 0.01
	minimum = 0 (at node 0)
	maximum = 0.16 (at node 15)
Injected flit rate average = 0.0100833
	minimum = 0.00666667 (at node 4)
	maximum = 0.013 (at node 11)
Accepted flit rate average= 0.01
	minimum = 0 (at node 0)
	maximum = 0.16 (at node 15)
Injected packet length average = 1
Accepted packet length average = 1
Total in-flight flits = 4 (4 measured)
latency change    = 0.00300406
throughput change = 0.0125
Draining all recorded packets ...
Draining remaining packets ...
Time taken is 4529 cycles
Class 0:
Packet latency average = 22.75
	minimum = 7
	maximum = 42
Network latency average = 22.75
	minimum = 7
	maximum = 42
Slowest packet = 33463
Flit latency average = 22.75
	minimum = 7
	maximum = 42
Slowest flit = 33463
Fragmentation average = 0
	minimum = 0
	maximum = 0
Injected packet rate average = 0.00975
	minimum = 0.004 (at node 7)
	maximum = 0.018 (at node 4)
Accepted packet rate average = 0.0095
	minimum = 0 (at node 0)
	maximum = 0.152 (at node 15)
Injected flit rate average = 0.00975
	minimum = 0.004 (at node 7)
	maximum = 0.018 (at node 4)
Accepted flit rate average= 0.0095
	minimum = 0 (at node 0)
	maximum = 0.152 (at node 15)
Injected packet length average = 1
Accepted packet length average = 1
Total in-flight flits = 2 (0 measured)
latency change    = 1
throughput change = 1
Class 0:
Packet latency average = 23.1293
	minimum = 7
	maximum = 42
Network latency average = 23.1293
	minimum = 7
	maximum = 42
Slowest packet = 33463
Flit latency average = 23.1293
	minimum = 7
	maximum = 42
Slowest flit = 33463
Fragmentation average = 0
	minimum = 0
	maximum = 0
Injected packet rate average = 0.0094375
	minimum = 0.005 (at node 3)
	maximum = 0.014 (at node 8)
Accepted packet rate average = 0.0091875
	minimum = 0 (at node 0)
	maximum = 0.147 (at node 15)
Injected flit rate average = 0.0094375
	minimum = 0.005 (at node 3)
	maximum = 0.014 (at node 8)
Accepted flit rate average= 0.0091875
	minimum = 0 (at node 0)
	maximum = 0.147 (at node 15)
Injected packet length average = 1
Accepted packet length average = 1
Total in-flight flits = 4 (0 measured)
latency change    = 0.0163971
throughput change = 0.0340136
Class 0:
Packet latency average = 22.7564
	minimum = 7
	maximum = 42
Network latency average = 22.7564
	minimum = 7
	maximum = 42
Slowest packet = 33611
Flit latency average = 22.7564
	minimum = 7
	maximum = 42
Slowest flit = 33611
Fragmentation average = 0
	minimum = 0
	maximum = 0
Injected packet rate average = 0.00975
	minimum = 0.004 (at node 12)
	maximum = 0.018 (at node 3)
Accepted packet rate average = 0.00975
	minimum = 0 (at node 0)
	maximum = 0.156 (at node 15)
Injected flit rate average = 0.00975
	minimum = 0.004 (at node 12)
	maximum = 0.018 (at node 3)
Accepted flit rate average= 0.00975
	minimum = 0 (at node 0)
	maximum = 0.156 (at node 15)
Injected packet length average = 1
Accepted packet length average = 1
Total in-flight flits = 4 (0 measured)
latency change    = 0.016384
throughput change = 0.0576923
Warmed up ...Time used is 1500 cycles
Class 0:
Packet latency average = 22.2857
	minimum = 7
	maximum = 42
Network latency average = 22.2857
	minimum = 7
	maximum = 42
Slowest packet = 33665
Flit latency average = 22.7973
	minimum = 7
	maximum = 44
Slowest flit = 33657
Fragmentation average = 0
	minimum = 0
	maximum = 0
Injected packet rate average = 0.009
	minimum = 0.002 (at node 5)
	maximum = 0.016 (at node 1)
Accepted packet rate average = 0.00925
	minimum = 0 (at node 0)
	maximum = 0.148 (at node 15)
Injected flit rate average = 0.009
	minimum = 0.002 (at node 5)
	maximum = 0.016 (at node 1)
Accepted flit rate average= 0.00925
	minimum = 0 (at node 0)
	maximum = 0.148 (at node 15)
Injected packet length average = 1
Accepted packet length average = 1
Total in-flight flits = 2 (2 measured)
latency change    = 0.021121
throughput change = 0.0540541
Class 0:
Packet latency average = 22.2647
	minimum = 7
	maximum = 42
Network latency average = 22.2647
	minimum = 7
	maximum = 42
Slowest packet = 33665
Flit latency average = 22.5357
	minimum = 7
	maximum = 44
Slowest flit = 33657
Fragmentation average = 0
	minimum = 0
	maximum = 0
Injected packet rate average = 0.008625
	minimum = 0.003 (at node 5)
	maximum = 0.014 (at node 1)
Accepted packet rate average = 0.00875
	minimum = 0 (at node 0)
	maximum = 0.14 (at node 15)
Injected flit rate average = 0.008625
	minimum = 0.003 (at node 5)
	maximum = 0.014 (at node 1)
Accepted flit rate average= 0.00875
	minimum = 0 (at node 0)
	maximum = 0.14 (at node 15)
Injected packet length average = 1
Accepted packet length average = 1
Total in-flight flits = 2 (2 measured)
latency change    = 0.000943574
throughput change = 0.0571429
Class 0:
Packet latency average = 22.9621
	minimum = 7
	maximum = 45
Network latency average = 22.9621
	minimum = 7
	maximum = 45
Slowest packet = 33810
Flit latency average = 23.1256
	minimum = 7
	maximum = 45
Slowest flit = 33810
Fragmentation average = 0
	minimum = 0
	maximum = 0
Injected packet rate average = 0.009
	minimum = 0.00533333 (at node 5)
	maximum = 0.014 (at node 1)
Accepted packet rate average = 0.00895833
	minimum = 0 (at node 0)
	maximum = 0.143333 (at node 15)
Injected flit rate average = 0.009
	minimum = 0.00533333 (at node 5)
	maximum = 0.014 (at node 1)
Accepted flit rate average= 0.00895833
	minimum = 0 (at node 0)
	maximum = 0.143333 (at node 15)
Injected packet length average = 1
Accepted packet length average = 1
Total in-flight flits = 5 (5 measured)
latency change    = 0.0303709
throughput change = 0.0232558
Class 0:
Packet latency average = 24.0033
	minimum = 7
	maximum = 71
Network latency average = 24.0033
	minimum = 7
	maximum = 71
Slowest packet = 33936
Flit latency average = 24.1029
	minimum = 7
	maximum = 71
Slowest flit = 33936
Fragmentation average = 0
	minimum = 0
	maximum = 0
Injected packet rate average = 0.00978125
	minimum = 0.006 (at node 5)
	maximum = 0.0145 (at node 1)
Accepted packet rate average = 0.00971875
	minimum = 0 (at node 0)
	maximum = 0.1555 (at node 15)
Injected flit rate average = 0.00978125
	minimum = 0.006 (at node 5)
	maximum = 0.0145 (at node 1)
Accepted flit rate average= 0.00971875
	minimum = 0 (at node 0)
	maximum = 0.1555 (at node 15)
Injected packet length average = 1
Accepted packet length average = 1
Total in-flight flits = 6 (6 measured)
latency change    = 0.0433763
throughput change = 0.0782422
Class 0:
Packet latency average = 23.8112
	minimum = 7
	maximum = 71
Network latency average = 23.8112
	minimum = 7
	maximum = 71
Slowest packet = 33936
Flit latency average = 23.8914
	minimum = 7
	maximum = 71
Slowest flit = 33936
Fragmentation average = 0
	minimum = 0
	maximum = 0
Injected packet rate average = 0.009825
	minimum = 0.0064 (at node 5)
	maximum = 0.0132 (at node 1)
Accepted packet rate average = 0.0099
	minimum = 0 (at node 0)
	maximum = 0.1584 (at node 15)
Injected flit rate average = 0.009825
	minimum = 0.0064 (at node 5)
	maximum = 0.0132 (at node 1)
Accepted flit rate average= 0.0099
	minimum = 0 (at node 0)
	maximum = 0.1584 (at node 15)
Injected packet length average = 1
Accepted packet length average = 1
Total in-flight flits = 1 (1 measured)
latency change    = 0.0080648
throughput change = 0.0183081
Class 0:
Packet latency average = 23.603
	minimum = 7
	maximum = 71
Network latency average = 23.603
	minimum = 7
	maximum = 71
Slowest packet = 33936
Flit latency average = 23.6716
	minimum = 7
	maximum = 71
Slowest flit = 33936
Fragmentation average = 0
	minimum = 0
	maximum = 0
Injected packet rate average = 0.01
	minimum = 0.006 (at node 5)
	maximum = 0.0133333 (at node 6)
Accepted packet rate average = 0.00989583
	minimum = 0 (at node 0)
	maximum = 0.158333 (at node 15)
Injected flit rate average = 0.01
	minimum = 0.006 (at node 5)
	maximum = 0.0133333 (at node 6)
Accepted flit rate average= 0.00989583
	minimum = 0 (at node 0)
	maximum = 0.158333 (at node 15)
Injected packet length average = 1
Accepted packet length average = 1
Total in-flight flits = 9 (9 measured)
latency change    = 0.00882313
throughput change = 0.000421053
Class 0:
Packet latency average = 23.9526
	minimum = 7
	maximum = 71
Network latency average = 23.9526
	minimum = 7
	maximum = 71
Slowest packet = 33936
Flit latency average = 24.009
	minimum = 7
	maximum = 71
Slowest flit = 33936
Fragmentation average = 0
	minimum = 0
	maximum = 0
Injected packet rate average = 0.00989286
	minimum = 0.00685714 (at node 5)
	maximum = 0.0128571 (at node 1)
Accepted packet rate average = 0.009875
	minimum = 0 (at node 0)
	maximum = 0.158 (at node 15)
Injected flit rate average = 0.00989286
	minimum = 0.00685714 (at node 5)
	maximum = 0.0128571 (at node 1)
Accepted flit rate average= 0.009875
	minimum = 0 (at node 0)
	maximum = 0.158 (at node 15)
Injected packet length average = 1
Accepted packet length average = 1
Total in-flight flits = 5 (5 measured)
latency change    = 0.0145983
throughput change = 0.0021097
Draining all recorded packets ...
Draining remaining packets ...
Time taken is 5063 cycles
Class 0:
Packet latency average = 22.8382
	minimum = 7
	maximum = 37
Network latency average = 22.8382
	minimum = 7
	maximum = 37
Slowest packet = 34231
Flit latency average = 22.8382
	minimum = 7
	maximum = 37
Slowest flit = 34231
Fragmentation average = 0
	minimum = 0
	maximum = 0
Injected packet rate average = 0.00875
	minimum = 0.002 (at node 5)
	maximum = 0.02 (at node 3)
Accepted packet rate average = 0.0085
	minimum = 0 (at node 0)
	maximum = 0.136 (at node 15)
Injected flit rate average = 0.00875
	minimum = 0.002 (at node 5)
	maximum = 0.02 (at node 3)
Accepted flit rate average= 0.0085
	minimum = 0 (at node 0)
	maximum = 0.136 (at node 15)
Injected packet length average = 1
Accepted packet length average = 1
Total in-flight flits = 2 (0 measured)
latency change    = 1
throughput change = 1
Class 0:
Packet latency average = 22.8583
	minimum = 7
	maximum = 45
Network latency average = 22.8583
	minimum = 7
	maximum = 45
Slowest packet = 34331
Flit latency average = 22.8583
	minimum = 7
	maximum = 45
Slowest flit = 34331
Fragmentation average = 0
	minimum = 0
	maximum = 0
Injected packet rate average = 0.008125
	minimum = 0.004 (at node 7)
	maximum = 0.015 (at node 3)
Accepted packet rate average = 0.0079375
	minimum = 0 (at node 0)
	maximum = 0.127 (at node 15)
Injected flit rate average = 0.008125
	minimum = 0.004 (at node 7)
	maximum = 0.015 (at node 3)
Accepted flit rate average= 0.0079375
	minimum = 0 (at node 0)
	maximum = 0.127 (at node 15)
Injected packet length average = 1
Accepted packet length average = 1
Total in-flight flits = 3 (0 measured)
latency change    = 0.000876375
throughput change = 0.0708661
Class 0:
Packet latency average = 23.2346
	minimum = 7
	maximum = 55
Network latency average = 23.2346
	minimum = 7
	maximum = 55
Slowest packet = 34367
Flit latency average = 23.2346
	minimum = 7
	maximum = 55
Slowest flit = 34367
Fragmentation average = 0
	minimum = 0
	maximum = 0
Injected packet rate average = 0.010375
	minimum = 0.002 (at node 5)
	maximum = 0.02 (at node 13)
Accepted packet rate average = 0.010125
	minimum = 0 (at node 0)
	maximum = 0.162 (at node 15)
Injected flit rate average = 0.010375
	minimum = 0.002 (at node 5)
	maximum = 0.02 (at node 13)
Accepted flit rate average= 0.010125
	minimum = 0 (at node 0)
	maximum = 0.162 (at node 15)
Injected packet length average = 1
Accepted packet length average = 1
Total in-flight flits = 5 (0 measured)
latency change    = 0.0161957
throughput change = 0.216049
Warmed up ...Time used is 1500 cycles
Class 0:
Packet latency average = 20.8158
	minimum = 7
	maximum = 37
Network latency average = 20.8158
	minimum = 7
	maximum = 37
Slowest packet = 34453
Flit latency average = 21.3457
	minimum = 7
	maximum = 37
Slowest flit = 34434
Fragmentation average = 0
	minimum = 0
	maximum = 0
Injected packet rate average = 0.00975
	minimum = 0.002 (at node 4)
	maximum = 0.02 (at node 7)
Accepted packet rate average = 0.010125
	minimum = 0 (at node 0)
	maximum = 0.162 (at node 15)
Injected flit rate average = 0.00975
	minimum = 0.002 (at node 4)
	maximum = 0.02 (at node 7)
Accepted flit rate average= 0.010125
	minimum = 0 (at node 0)
	maximum = 0.162 (at node 15)
Injected packet length average = 1
Accepted packet length average = 1
Total in-flight flits = 2 (2 measured)
latency change    = 0.116199
throughput change = 0
Class 0:
Packet latency average = 21.625
	minimum = 7
	maximum = 41
Network latency average = 21.625
	minimum = 7
	maximum = 41
Slowest packet = 34576
Flit latency average = 21.8859
	minimum = 7
	maximum = 41
Slowest flit = 34576
Fragmentation average = 0
	minimum = 0
	maximum = 0
Injected packet rate average = 0.0093125
	minimum = 0.003 (at node 1)
	maximum = 0.016 (at node 5)
Accepted packet rate average = 0.0093125
	minimum = 0 (at node 0)
	maximum = 0.149 (at node 15)
Injected flit rate average = 0.0093125
	minimum = 0.003 (at node 1)
	maximum = 0.016 (at node 5)
Accepted flit rate average= 0.0093125
	minimum = 0 (at node 0)
	maximum = 0.149 (at node 15)
Injected packet length average = 1
Accepted packet length average = 1
Total in-flight flits = 5 (5 measured)
latency change    = 0.0374201
throughput change = 0.0872483
Class 0:
Packet latency average = 22.4
	minimum = 7
	maximum = 53
Network latency average = 22.4
	minimum = 7
	maximum = 53
Slowest packet = 34615
Flit latency average = 22.5458
	minimum = 7
	maximum = 53
Slowest flit = 34615
Fragmentation average = 0
	minimum = 0
	maximum = 0
Injected packet rate average = 0.00995833
	minimum = 0.006 (at node 4)
	maximum = 0.0153333 (at node 7)
Accepted packet rate average = 0.01
	minimum = 0 (at node 0)
	maximum = 0.16 (at node 15)
Injected flit rate average = 0.00995833
	minimum = 0.006 (at node 4)
	maximum = 0.0153333 (at node 7)
Accepted flit rate average= 0.01
	minimum = 0 (at node 0)
	maximum = 0.16 (at node 15)
Injected packet length average = 1
Accepted packet length average = 1
Total in-flight flits = 4 (4 measured)
latency change    = 0.0345982
throughput change = 0.06875
Class 0:
Packet latency average = 22.9841
	minimum = 7
	maximum = 60
Network latency average = 22.9841
	minimum = 7
	maximum = 60
Slowest packet = 34681
Flit latency average = 23.0846
	minimum = 7
	maximum = 60
Slowest flit = 34681
Fragmentation average = 0
	minimum = 0
	maximum = 0
Injected packet rate average = 0.00990625
	minimum = 0.0065 (at node 4)
	maximum = 0.014 (at node 7)
Accepted packet rate average = 0.00996875
	minimum = 0 (at node 0)
	maximum = 0.1595 (at node 15)
Injected flit rate average = 0.00990625
	minimum = 0.0065 (at node 4)
	maximum = 0.014 (at node 7)
Accepted flit rate average= 0.00996875
	minimum = 0 (at node 0)
	maximum = 0.1595 (at node 15)
Injected packet length average = 1
Accepted packet length average = 1
Total in-flight flits = 3 (3 measured)
latency change    = 0.0254122
throughput change = 0.0031348
Class 0:
Packet latency average = 22.9288
	minimum = 7
	maximum = 60
Network latency average = 22.9288
	minimum = 7
	maximum = 60
Slowest packet = 34681
Flit latency average = 23.013
	minimum = 7
	maximum = 60
Slowest flit = 34681
Fragmentation average = 0
	minimum = 0
	maximum = 0
Injected packet rate average = 0.00965
	minimum = 0.0064 (at node 9)
	maximum = 0.0148 (at node 7)
Accepted packet rate average = 0.0096
	minimum = 0 (at node 0)
	maximum = 0.1536 (at node 15)
Injected flit rate average = 0.00965
	minimum = 0.0064 (at node 9)
	maximum = 0.0148 (at node 7)
Accepted flit rate average= 0.0096
	minimum = 0 (at node 0)
	maximum = 0.1536 (at node 15)
Injected packet length average = 1
Accepted packet length average = 1
Total in-flight flits = 7 (7 measured)
latency change    = 0.00241254
throughput change = 0.0384115
Class 0:
Packet latency average = 23.0835
	minimum = 7
	maximum = 60
Network latency average = 23.0835
	minimum = 7
	maximum = 60
Slowest packet = 34681
Flit latency average = 23.1522
	minimum = 7
	maximum = 60
Slowest flit = 34681
Fragmentation average = 0
	minimum = 0
	maximum = 0
Injected packet rate average = 0.00954167
	minimum = 0.007 (at node 1)
	maximum = 0.014 (at node 7)
Accepted packet rate average = 0.00958333
	minimum = 0 (at node 0)
	maximum = 0.153333 (at node 15)
Injected flit rate average = 0.00954167
	minimum = 0.007 (at node 1)
	maximum = 0.014 (at node 7)
Accepted flit rate average= 0.00958333
	minimum = 0 (at node 0)
	maximum = 0.153333 (at node 15)
Injected packet length average = 1
Accepted packet length average = 1
Total in-flight flits = 3 (3 measured)
latency change    = 0.0067042
throughput change = 0.00173913
Draining all recorded packets ...
Draining remaining packets ...
Time taken is 4558 cycles
====== Overall Traffic Statistics ======
====== Traffic class 0 ======
Packet latency average = 24.0661 (50 samples)
	minimum = 7 (50 samples)
	maximum = 66.18 (50 samples)
Network latency average = 24.0661 (50 samples)
	minimum = 7 (50 samples)
	maximum = 66.18 (50 samples)
Flit latency average = 24.1102 (50 samples)
	minimum = 7 (50 samples)
	maximum = 66.18 (50 samples)
Fragmentation average = 0 (50 samples)
	minimum = 0 (50 samples)
	maximum = 0 (50 samples)
Injected packet rate average = 0.00994627 (50 samples)
	minimum = 0.00665952 (50 samples)
	maximum = 0.0134657 (50 samples)
Accepted packet rate average = 0.00994897 (50 samples)
	minimum = 0 (50 samples)
	maximum = 0.159184 (50 samples)
Injected flit rate average = 0.00994627 (50 samples)
	minimum = 0.00665952 (50 samples)
	maximum = 0.0134657 (50 samples)
Accepted flit rate average = 0.00994897 (50 samples)
	minimum = 0 (50 samples)
	maximum = 0.159184 (50 samples)
Injected packet size average = 1 (50 samples)
Accepted packet size average = 1 (50 samples)
Hops average = 3.98759 (50 samples)
Total run time 1.18706
