BEGIN Configuration File: /tmp/tmp4izyy3eu.cfg
topology = mesh;
k = 4;
n = 2;
routing_function = planar_adapt;
num_vcs = 4;
vc_buf_size = 4;
wait_for_tail_credit = 1;
vc_allocator = islip;
sw_allocator = islip;
alloc_iters = 1;
credit_delay = 2;
routing_delay = 1;
vc_alloc_delay = 1;
sw_alloc_delay = 1;
input_speedup = 2;
output_speedup = 1;
internal_speedup = 1.0;
traffic = transpose;
packet_size = 1;
sim_type = latency;
injection_rate = 0.05;
warmup_periods = 3;
sample_period = 500;
sim_count = 50;
seed = 1;
link_failures = 1;
fail_seed = 202;

END Configuration File: /tmp/tmp4izyy3eu.cfg
failure at node 4, channel 2 (1/1)
Class 0:
Packet latency average = 27.0112
	minimum = 7
	maximum = 169
Network latency average = 27
	minimum = 7
	maximum = 169
Slowest packet = 209
Flit latency average = 27
	minimum = 7
	maximum = 169
Slowest flit = 209
Fragmentation average = 0
	minimum = 0
	maximum = 0
Injected packet rate average = 0.04875
	minimum = 0.034 (at node 5)
	maximum = 0.062 (at node 8)
Accepted packet rate average = 0.04475
	minimum = 0.032 (at node 5)
	maximum = 0.058 (at node 1)
Injected flit rate average = 0.04875
	minimum = 0.034 (at node 5)
	maximum = 0.062 (at node 8)
Accepted flit rate average= 0.04475
	minimum = 0.032 (at node 5)
	maximum = 0.058 (at node 1)
Injected packet length average = 1
Accepted packet length average = 1
Total in-flight flits = 33 (0 measured)
latency change    = 1
throughput change = 1
Class 0:
Packet latency average = 33.5872
	minimum = 7
	maximum = 391
Network latency average = 32.1797
	minimum = 7
	maximum = 357
Slowest packet = 263
Flit latency average = 32.1797
	minimum = 7
	maximum = 357
Slowest flit = 263
Fragmentation average = 0
	minimum = 0
	maximum = 0
Injected packet rate average = 0.049875
	minimum = 0.039 (at node 7)
	maximum = 0.06 (at node 13)
Accepted packet rate average = 0.048
	minimum = 0.033 (at node 12)
	maximum = 0.057 (at node 4)
Injected flit rate average = 0.049875
	minimum = 0.039 (at node 7)
	maximum = 0.06 (at node 13)
Accepted flit rate average= 0.048
	minimum = 0.033 (at node 12)
	maximum = 0.057 (at node 4)
Injected packet length average = 1
Accepted packet length average = 1
Total in-flight flits = 31 (0 measured)
latency change    = 0.195791
throughput change = 0.0677083
Class 0:
Packet latency average = 45.4364
	minimum = 7
	maximum = 671
Network latency average = 36.2442
	minimum = 7
	maximum = 449
Slowest packet = 660
Flit latency average = 36.2442
	minimum = 7
	maximum = 449
Slowest flit = 745
Fragmentation average = 0
	minimum = 0
	maximum = 0
Injected packet rate average = 0.047375
	minimum = 0.03 (at node 3)
	maximum = 0.066 (at node 8)
Accepted packet rate average = 0.048125
	minimum = 0.028 (at node 12)
	maximum = 0.07 (at node 2)
Injected flit rate average = 0.047375
	minimum = 0.03 (at node 3)
	maximum = 0.066 (at node 8)
Accepted flit rate average= 0.048125
	minimum = 0.028 (at node 12)
	maximum = 0.07 (at node 2)
Injected packet length average = 1
Accepted packet length average = 1
Total in-flight flits = 26 (0 measured)
latency change    = 0.260785
throughput change = 0.0025974
Warmed up ...Time used is 1500 cycles
Class 0:
Packet latency average = 37.5873
	minimum = 7
	maximum = 875
Network latency average = 29.9722
	minimum = 7
	maximum = 303
Slowest packet = 1223
Flit latency average = 37.0855
	minimum = 7
	maximum = 363
Slowest flit = 1040
Fragmentation average = 0
	minimum = 0
	maximum = 0
Injected packet rate average = 0.052375
	minimum = 0.03 (at node 3)
	maximum = 0.074 (at node 0)
Accepted packet rate average = 0.052625
	minimum = 0.03 (at node 12)
	maximum = 0.074 (at node 0)
Injected flit rate average = 0.052375
	minimum = 0.03 (at node 3)
	maximum = 0.074 (at node 0)
Accepted flit rate average= 0.052625
	minimum = 0.03 (at node 12)
	maximum = 0.074 (at node 0)
Injected packet length average = 1
Accepted packet length average = 1
Total in-flight flits = 23 (23 measured)
latency change    = 0.208821
throughput change = 0.0855107
Class 0:
Packet latency average = 53.9687
	minimum = 7
	maximum = 1171
Network latency average = 33.0388
	minimum = 7
	maximum = 381
Slowest packet = 1223
Flit latency average = 36.5721
	minimum = 7
	maximum = 381
Slowest flit = 1290
Fragmentation average = 0
	minimum = 0
	maximum = 0
Injected packet rate average = 0.0519375
	minimum = 0.032 (at node 3)
	maximum = 0.064 (at node 4)
Accepted packet rate average = 0.0515625
	minimum = 0.033 (at node 12)
	maximum = 0.063 (at node 0)
Injected flit rate average = 0.0519375
	minimum = 0.032 (at node 3)
	maximum = 0.064 (at node 4)
Accepted flit rate average= 0.0515625
	minimum = 0.033 (at node 12)
	maximum = 0.063 (at node 0)
Injected packet length average = 1
Accepted packet length average = 1
Total in-flight flits = 32 (32 measured)
latency change    = 0.303535
throughput change = 0.0206061
Class 0:
Packet latency average = 61.0563
	minimum = 7
	maximum = 1478
Network latency average = 34.2326
	minimum = 7
	maximum = 426
Slowest packet = 1223
Flit latency average = 36.6023
	minimum = 7
	maximum = 426
Slowest flit = 1985
Fragmentation average = 0
	minimum = 0
	maximum = 0
Injected packet rate average = 0.0507917
	minimum = 0.03 (at node 3)
	maximum = 0.0633333 (at node 0)
Accepted packet rate average = 0.0507083
	minimum = 0.0306667 (at node 12)
	maximum = 0.064 (at node 1)
Injected flit rate average = 0.0507917
	minimum = 0.03 (at node 3)
	maximum = 0.0633333 (at node 0)
Accepted flit rate average= 0.0507083
	minimum = 0.0306667 (at node 12)
	maximum = 0.064 (at node 1)
Injected packet length average = 1
Accepted packet length average = 1
Total in-flight flits = 28 (28 measured)
latency change    = 0.116082
throughput change = 0.0168447
Class 0:
Packet latency average = 71.6133
	minimum = 7
	maximum = 1777
Network latency average = 35.668
	minimum = 7
	maximum = 448
Slowest packet = 1223
Flit latency average = 37.4696
	minimum = 7
	maximum = 448
Slowest flit = 2184
Fragmentation average = 0
	minimum = 0
	maximum = 0
Injected packet rate average = 0.0495312
	minimum = 0.0285 (at node 3)
	maximum = 0.0605 (at node 0)
Accepted packet rate average = 0.049375
	minimum = 0.03 (at node 12)
	maximum = 0.0605 (at node 1)
Injected flit rate average = 0.0495312
	minimum = 0.0285 (at node 3)
	maximum = 0.0605 (at node 0)
Accepted flit rate average= 0.049375
	minimum = 0.03 (at node 12)
	maximum = 0.0605 (at node 1)
Injected packet length average = 1
Accepted packet length average = 1
Total in-flight flits = 31 (31 measured)
latency change    = 0.147417
throughput change = 0.0270042
Class 0:
Packet latency average = 78.8851
	minimum = 7
	maximum = 2101
Network latency average = 36.0299
	minimum = 7
	maximum = 448
Slowest packet = 1223
Flit latency average = 37.473
	minimum = 7
	maximum = 448
Slowest flit = 2184
Fragmentation average = 0
	minimum = 0
	maximum = 0
Injected packet rate average = 0.049275
	minimum = 0.028 (at node 3)
	maximum = 0.0592 (at node 4)
Accepted packet rate average = 0.04915
	minimum = 0.0288 (at node 12)
	maximum = 0.06 (at node 1)
Injected flit rate average = 0.049275
	minimum = 0.028 (at node 3)
	maximum = 0.0592 (at node 4)
Accepted flit rate average= 0.04915
	minimum = 0.0288 (at node 12)
	maximum = 0.06 (at node 1)
Injected packet length average = 1
Accepted packet length average = 1
Total in-flight flits = 31 (31 measured)
latency change    = 0.0921822
throughput change = 0.00457782
Class 0:
Packet latency average = 86.1679
	minimum = 7
	maximum = 2511
Network latency average = 36.3799
	minimum = 7
	maximum = 483
Slowest packet = 1223
Flit latency average = 37.5777
	minimum = 7
	maximum = 483
Slowest flit = 3154
Fragmentation average = 0
	minimum = 0
	maximum = 0
Injected packet rate average = 0.0493542
	minimum = 0.0283333 (at node 3)
	maximum = 0.057 (at node 4)
Accepted packet rate average = 0.0491875
	minimum = 0.0283333 (at node 12)
	maximum = 0.0576667 (at node 1)
Injected flit rate average = 0.0493542
	minimum = 0.0283333 (at node 3)
	maximum = 0.057 (at node 4)
Accepted flit rate average= 0.0491875
	minimum = 0.0283333 (at node 12)
	maximum = 0.0576667 (at node 1)
Injected packet length average = 1
Accepted packet length average = 1
Total in-flight flits = 34 (34 measured)
latency change    = 0.0845191
throughput change = 0.000762389
Class 0:
Packet latency average = 92.6602
	minimum = 7
	maximum = 2750
Network latency average = 36.6639
	minimum = 7
	maximum = 501
Slowest packet = 1223
Flit latency average = 37.6793
	minimum = 7
	maximum = 501
Slowest flit = 3410
Fragmentation average = 0
	minimum = 0
	maximum = 0
Injected packet rate average = 0.0498214
	minimum = 0.0268571 (at node 3)
	maximum = 0.0585714 (at node 4)
Accepted packet rate average = 0.0496071
	minimum = 0.0277143 (at node 12)
	maximum = 0.0585714 (at node 1)
Injected flit rate average = 0.0498214
	minimum = 0.0268571 (at node 3)
	maximum = 0.0585714 (at node 4)
Accepted flit rate average= 0.0496071
	minimum = 0.0277143 (at node 12)
	maximum = 0.0585714 (at node 1)
Injected packet length average = 1
Accepted packet length average = 1
Total in-flight flits = 38 (38 measured)
latency change    = 0.0700664
throughput change = 0.00845932
Draining all recorded packets ...
Class 0:
Remaining flits: 4490 4505 4580 4588 4589 4604 4624 4642 4657 4676 [...] (25 flits)
Measured flits: 4490 4505 4580 4588 4589 4604 4693 4728 (8 flits)
Class 0:
Remaining flits: 5264 5308 5350 5356 5362 5410 5436 5449 5455 5458 [...] (35 flits)
Measured flits: 5264 5308 5350 5356 5449 5458 5497 5504 (8 flits)
Class 0:
Remaining flits: 5934 6036 6064 6121 6130 6140 6160 6164 6200 6217 [...] (34 flits)
Measured flits: 5934 6036 6064 6130 6140 6160 6164 6290 6300 6305 (10 flits)
Class 0:
Remaining flits: 6734 6826 6830 6920 6926 6935 6945 6948 6962 6971 [...] (34 flits)
Measured flits: 6734 6826 6830 6926 6935 6945 6962 7054 (8 flits)
Class 0:
Remaining flits: 7509 7626 7634 7654 7704 7708 7723 7748 7753 7765 [...] (29 flits)
Measured flits: 7509 7626 7634 7723 7748 7753 7765 (7 flits)
Draining remaining packets ...
Time taken is 10799 cycles
Class 0:
Packet latency average = 27.3677
	minimum = 7
	maximum = 132
Network latency average = 27.3426
	minimum = 7
	maximum = 132
Slowest packet = 8519
Flit latency average = 27.3426
	minimum = 7
	maximum = 132
Slowest flit = 8519
Fragmentation average = 0
	minimum = 0
	maximum = 0
Injected packet rate average = 0.04925
	minimum = 0.034 (at node 5)
	maximum = 0.062 (at node 10)
Accepted packet rate average = 0.044875
	minimum = 0.03 (at node 12)
	maximum = 0.06 (at node 10)
Injected flit rate average = 0.04925
	minimum = 0.034 (at node 5)
	maximum = 0.062 (at node 10)
Accepted flit rate average= 0.044875
	minimum = 0.03 (at node 12)
	maximum = 0.06 (at node 10)
Injected packet length average = 1
Accepted packet length average = 1
Total in-flight flits = 36 (0 measured)
latency change    = 1
throughput change = 1
Class 0:
Packet latency average = 33.9313
	minimum = 7
	maximum = 495
Network latency average = 32.5324
	minimum = 7
	maximum = 327
Slowest packet = 8575
Flit latency average = 32.5324
	minimum = 7
	maximum = 327
Slowest flit = 8798
Fragmentation average = 0
	minimum = 0
	maximum = 0
Injected packet rate average = 0.0495625
	minimum = 0.04 (at node 5)
	maximum = 0.062 (at node 7)
Accepted packet rate average = 0.0473125
	minimum = 0.032 (at node 12)
	maximum = 0.061 (at node 2)
Injected flit rate average = 0.0495625
	minimum = 0.04 (at node 5)
	maximum = 0.062 (at node 7)
Accepted flit rate average= 0.0473125
	minimum = 0.032 (at node 12)
	maximum = 0.061 (at node 2)
Injected packet length average = 1
Accepted packet length average = 1
Total in-flight flits = 37 (0 measured)
latency change    = 0.193438
throughput change = 0.0515192
Class 0:
Packet latency average = 46.942
	minimum = 7
	maximum = 600
Network latency average = 36.5541
	minimum = 7
	maximum = 359
Slowest packet = 8839
Flit latency average = 36.5541
	minimum = 7
	maximum = 359
Slowest flit = 9082
Fragmentation average = 0
	minimum = 0
	maximum = 0
Injected packet rate average = 0.046125
	minimum = 0.03 (at node 3)
	maximum = 0.062 (at node 10)
Accepted packet rate average = 0.047375
	minimum = 0.032 (at node 6)
	maximum = 0.062 (at node 9)
Injected flit rate average = 0.046125
	minimum = 0.03 (at node 3)
	maximum = 0.062 (at node 10)
Accepted flit rate average= 0.047375
	minimum = 0.032 (at node 6)
	maximum = 0.062 (at node 9)
Injected packet length average = 1
Accepted packet length average = 1
Total in-flight flits = 28 (0 measured)
latency change    = 0.277165
throughput change = 0.00131926
Warmed up ...Time used is 1500 cycles
Class 0:
Packet latency average = 34.9273
	minimum = 7
	maximum = 697
Network latency average = 28.1628
	minimum = 7
	maximum = 381
Slowest packet = 9469
Flit latency average = 37.2151
	minimum = 7
	maximum = 450
Slowest flit = 9447
Fragmentation average = 0
	minimum = 0
	maximum = 0
Injected packet rate average = 0.046875
	minimum = 0.026 (at node 3)
	maximum = 0.064 (at node 15)
Accepted packet rate average = 0.0465
	minimum = 0.03 (at node 11)
	maximum = 0.066 (at node 15)
Injected flit rate average = 0.046875
	minimum = 0.026 (at node 3)
	maximum = 0.064 (at node 15)
Accepted flit rate average= 0.0465
	minimum = 0.03 (at node 11)
	maximum = 0.066 (at node 15)
Injected packet length average = 1
Accepted packet length average = 1
Total in-flight flits = 31 (31 measured)
latency change    = 0.343989
throughput change = 0.0188172
Class 0:
Packet latency average = 48.6227
	minimum = 7
	maximum = 990
Network latency average = 34.3242
	minimum = 7
	maximum = 507
Slowest packet = 9469
Flit latency average = 38.731
	minimum = 7
	maximum = 507
Slowest flit = 9610
Fragmentation average = 0
	minimum = 0
	maximum = 0
Injected packet rate average = 0.04575
	minimum = 0.025 (at node 3)
	maximum = 0.055 (at node 5)
Accepted packet rate average = 0.0453125
	minimum = 0.027 (at node 12)
	maximum = 0.055 (at node 5)
Injected flit rate average = 0.04575
	minimum = 0.025 (at node 3)
	maximum = 0.055 (at node 5)
Accepted flit rate average= 0.0453125
	minimum = 0.027 (at node 12)
	maximum = 0.055 (at node 5)
Injected packet length average = 1
Accepted packet length average = 1
Total in-flight flits = 35 (35 measured)
latency change    = 0.281666
throughput change = 0.0262069
Class 0:
Packet latency average = 55.809
	minimum = 7
	maximum = 1214
Network latency average = 35.8437
	minimum = 7
	maximum = 507
Slowest packet = 9469
Flit latency average = 38.6533
	minimum = 7
	maximum = 507
Slowest flit = 9610
Fragmentation average = 0
	minimum = 0
	maximum = 0
Injected packet rate average = 0.0466667
	minimum = 0.0253333 (at node 3)
	maximum = 0.0566667 (at node 5)
Accepted packet rate average = 0.04675
	minimum = 0.026 (at node 12)
	maximum = 0.0566667 (at node 5)
Injected flit rate average = 0.0466667
	minimum = 0.0253333 (at node 3)
	maximum = 0.0566667 (at node 5)
Accepted flit rate average= 0.04675
	minimum = 0.026 (at node 12)
	maximum = 0.0566667 (at node 5)
Injected packet length average = 1
Accepted packet length average = 1
Total in-flight flits = 26 (26 measured)
latency change    = 0.128766
throughput change = 0.0307487
Class 0:
Packet latency average = 64.707
	minimum = 7
	maximum = 1517
Network latency average = 36.6831
	minimum = 7
	maximum = 507
Slowest packet = 9469
Flit latency average = 38.7844
	minimum = 7
	maximum = 507
Slowest flit = 9610
Fragmentation average = 0
	minimum = 0
	maximum = 0
Injected packet rate average = 0.0465625
	minimum = 0.026 (at node 3)
	maximum = 0.058 (at node 5)
Accepted packet rate average = 0.0465313
	minimum = 0.027 (at node 12)
	maximum = 0.0575 (at node 5)
Injected flit rate average = 0.0465625
	minimum = 0.026 (at node 3)
	maximum = 0.058 (at node 5)
Accepted flit rate average= 0.0465313
	minimum = 0.027 (at node 12)
	maximum = 0.0575 (at node 5)
Injected packet length average = 1
Accepted packet length average = 1
Total in-flight flits = 28 (28 measured)
latency change    = 0.137513
throughput change = 0.00470114
Class 0:
Packet latency average = 69.6279
	minimum = 7
	maximum = 1722
Network latency average = 36.9162
	minimum = 7
	maximum = 507
Slowest packet = 9469
Flit latency average = 38.6012
	minimum = 7
	maximum = 507
Slowest flit = 9610
Fragmentation average = 0
	minimum = 0
	maximum = 0
Injected packet rate average = 0.046275
	minimum = 0.0264 (at node 3)
	maximum = 0.0588 (at node 5)
Accepted packet rate average = 0.046325
	minimum = 0.0268 (at node 12)
	maximum = 0.0584 (at node 5)
Injected flit rate average = 0.046275
	minimum = 0.0264 (at node 3)
	maximum = 0.0588 (at node 5)
Accepted flit rate average= 0.046325
	minimum = 0.0268 (at node 12)
	maximum = 0.0584 (at node 5)
Injected packet length average = 1
Accepted packet length average = 1
Total in-flight flits = 26 (26 measured)
latency change    = 0.0706741
throughput change = 0.00445224
Class 0:
Packet latency average = 73.4385
	minimum = 7
	maximum = 1949
Network latency average = 37.1153
	minimum = 7
	maximum = 507
Slowest packet = 9469
Flit latency average = 38.518
	minimum = 7
	maximum = 507
Slowest flit = 9610
Fragmentation average = 0
	minimum = 0
	maximum = 0
Injected packet rate average = 0.0465625
	minimum = 0.0256667 (at node 3)
	maximum = 0.0576667 (at node 5)
Accepted packet rate average = 0.0462917
	minimum = 0.0263333 (at node 12)
	maximum = 0.0573333 (at node 5)
Injected flit rate average = 0.0465625
	minimum = 0.0256667 (at node 3)
	maximum = 0.0576667 (at node 5)
Accepted flit rate average= 0.0462917
	minimum = 0.0263333 (at node 12)
	maximum = 0.0573333 (at node 5)
Injected packet length average = 1
Accepted packet length average = 1
Total in-flight flits = 41 (41 measured)
latency change    = 0.0518873
throughput change = 0.000720072
Class 0:
Packet latency average = 76.7848
	minimum = 7
	maximum = 2145
Network latency average = 37.7062
	minimum = 7
	maximum = 507
Slowest packet = 9469
Flit latency average = 38.8766
	minimum = 7
	maximum = 507
Slowest flit = 9610
Fragmentation average = 0
	minimum = 0
	maximum = 0
Injected packet rate average = 0.0473214
	minimum = 0.0251429 (at node 3)
	maximum = 0.0582857 (at node 5)
Accepted packet rate average = 0.0473036
	minimum = 0.026 (at node 12)
	maximum = 0.058 (at node 5)
Injected flit rate average = 0.0473214
	minimum = 0.0251429 (at node 3)
	maximum = 0.0582857 (at node 5)
Accepted flit rate average= 0.0473036
	minimum = 0.026 (at node 12)
	maximum = 0.058 (at node 5)
Injected packet length average = 1
Accepted packet length average = 1
Total in-flight flits = 29 (29 measured)
latency change    = 0.0435808
throughput change = 0.0213917
Draining all recorded packets ...
Class 0:
Remaining flits: 12624 12674 12675 12737 12741 12758 12775 12784 12798 12839 [...] (31 flits)
Measured flits: 12624 12674 12675 12741 12758 12775 12798 (7 flits)
Class 0:
Remaining flits: 13354 13389 13514 13531 13578 13579 13581 13588 13595 13606 [...] (25 flits)
Measured flits: 13354 13389 13514 13531 13579 13588 13626 (7 flits)
Class 0:
Remaining flits: 14137 14167 14204 14225 14251 14292 14309 14312 14339 14346 [...] (38 flits)
Measured flits: 14137 14167 14204 14225 14251 14292 14309 14367 14406 (9 flits)
Draining remaining packets ...
Time taken is 8799 cycles
Class 0:
Packet latency average = 28.8832
	minimum = 7
	maximum = 291
Network latency average = 28.698
	minimum = 7
	maximum = 291
Slowest packet = 15130
Flit latency average = 28.698
	minimum = 7
	maximum = 291
Slowest flit = 15130
Fragmentation average = 0
	minimum = 0
	maximum = 0
Injected packet rate average = 0.05225
	minimum = 0.03 (at node 8)
	maximum = 0.066 (at node 1)
Accepted packet rate average = 0.04925
	minimum = 0.026 (at node 12)
	maximum = 0.066 (at node 4)
Injected flit rate average = 0.05225
	minimum = 0.03 (at node 8)
	maximum = 0.066 (at node 1)
Accepted flit rate average= 0.04925
	minimum = 0.026 (at node 12)
	maximum = 0.066 (at node 4)
Injected packet length average = 1
Accepted packet length average = 1
Total in-flight flits = 25 (0 measured)
latency change    = 1
throughput change = 1
Class 0:
Packet latency average = 33.0625
	minimum = 7
	maximum = 368
Network latency average = 32.0547
	minimum = 7
	maximum = 334
Slowest packet = 15139
Flit latency average = 32.0547
	minimum = 7
	maximum = 334
Slowest flit = 15139
Fragmentation average = 0
	minimum = 0
	maximum = 0
Injected packet rate average = 0.0490625
	minimum = 0.039 (at node 8)
	maximum = 0.068 (at node 13)
Accepted packet rate average = 0.048
	minimum = 0.034 (at node 12)
	maximum = 0.066 (at node 7)
Injected flit rate average = 0.0490625
	minimum = 0.039 (at node 8)
	maximum = 0.068 (at node 13)
Accepted flit rate average= 0.048
	minimum = 0.034 (at node 12)
	maximum = 0.066 (at node 7)
Injected packet length average = 1
Accepted packet length average = 1
Total in-flight flits = 18 (0 measured)
latency change    = 0.126405
throughput change = 0.0260417
Class 0:
Packet latency average = 41.634
	minimum = 7
	maximum = 433
Network latency average = 35.8325
	minimum = 7
	maximum = 327
Slowest packet = 15677
Flit latency average = 35.8325
	minimum = 7
	maximum = 327
Slowest flit = 15762
Fragmentation average = 0
	minimum = 0
	maximum = 0
Injected packet rate average = 0.0495
	minimum = 0.034 (at node 9)
	maximum = 0.08 (at node 14)
Accepted packet rate average = 0.0485
	minimum = 0.032 (at node 9)
	maximum = 0.076 (at node 11)
Injected flit rate average = 0.0495
	minimum = 0.034 (at node 9)
	maximum = 0.08 (at node 14)
Accepted flit rate average= 0.0485
	minimum = 0.032 (at node 9)
	maximum = 0.076 (at node 11)
Injected packet length average = 1
Accepted packet length average = 1
Total in-flight flits = 26 (0 measured)
latency change    = 0.205878
throughput change = 0.0103093
Warmed up ...Time used is 1500 cycles
Class 0:
Packet latency average = 35.0505
	minimum = 7
	maximum = 627
Network latency average = 28.9468
	minimum = 7
	maximum = 309
Slowest packet = 16129
Flit latency average = 33.9204
	minimum = 7
	maximum = 309
Slowest flit = 15925
Fragmentation average = 0
	minimum = 0
	maximum = 0
Injected packet rate average = 0.0505
	minimum = 0.028 (at node 3)
	maximum = 0.086 (at node 10)
Accepted packet rate average = 0.05025
	minimum = 0.03 (at node 12)
	maximum = 0.084 (at node 10)
Injected flit rate average = 0.0505
	minimum = 0.028 (at node 3)
	maximum = 0.086 (at node 10)
Accepted flit rate average= 0.05025
	minimum = 0.03 (at node 12)
	maximum = 0.084 (at node 10)
Injected packet length average = 1
Accepted packet length average = 1
Total in-flight flits = 29 (29 measured)
latency change    = 0.187828
throughput change = 0.0348259
Class 0:
Packet latency average = 49.4856
	minimum = 7
	maximum = 960
Network latency average = 33.4692
	minimum = 7
	maximum = 460
Slowest packet = 16129
Flit latency average = 35.9551
	minimum = 7
	maximum = 460
Slowest flit = 16333
Fragmentation average = 0
	minimum = 0
	maximum = 0
Injected packet rate average = 0.04775
	minimum = 0.031 (at node 3)
	maximum = 0.063 (at node 10)
Accepted packet rate average = 0.0473125
	minimum = 0.03 (at node 12)
	maximum = 0.062 (at node 10)
Injected flit rate average = 0.04775
	minimum = 0.031 (at node 3)
	maximum = 0.063 (at node 10)
Accepted flit rate average= 0.0473125
	minimum = 0.03 (at node 12)
	maximum = 0.062 (at node 10)
Injected packet length average = 1
Accepted packet length average = 1
Total in-flight flits = 33 (33 measured)
latency change    = 0.291703
throughput change = 0.0620872
Class 0:
Packet latency average = 56.5359
	minimum = 7
	maximum = 1228
Network latency average = 34.8055
	minimum = 7
	maximum = 460
Slowest packet = 16129
Flit latency average = 36.3669
	minimum = 7
	maximum = 460
Slowest flit = 16333
Fragmentation average = 0
	minimum = 0
	maximum = 0
Injected packet rate average = 0.0495
	minimum = 0.0313333 (at node 3)
	maximum = 0.0673333 (at node 10)
Accepted packet rate average = 0.0492917
	minimum = 0.0313333 (at node 12)
	maximum = 0.0666667 (at node 10)
Injected flit rate average = 0.0495
	minimum = 0.0313333 (at node 3)
	maximum = 0.0673333 (at node 10)
Accepted flit rate average= 0.0492917
	minimum = 0.0313333 (at node 12)
	maximum = 0.0666667 (at node 10)
Injected packet length average = 1
Accepted packet length average = 1
Total in-flight flits = 31 (31 measured)
latency change    = 0.124704
throughput change = 0.0401522
Class 0:
Packet latency average = 59.3898
	minimum = 7
	maximum = 1375
Network latency average = 35.8093
	minimum = 7
	maximum = 482
Slowest packet = 16129
Flit latency average = 36.9669
	minimum = 7
	maximum = 482
Slowest flit = 17082
Fragmentation average = 0
	minimum = 0
	maximum = 0
Injected packet rate average = 0.0492812
	minimum = 0.03 (at node 3)
	maximum = 0.0625 (at node 10)
Accepted packet rate average = 0.0491562
	minimum = 0.0295 (at node 12)
	maximum = 0.0625 (at node 10)
Injected flit rate average = 0.0492812
	minimum = 0.03 (at node 3)
	maximum = 0.0625 (at node 10)
Accepted flit rate average= 0.0491562
	minimum = 0.0295 (at node 12)
	maximum = 0.0625 (at node 10)
Injected packet length average = 1
Accepted packet length average = 1
Total in-flight flits = 30 (30 measured)
latency change    = 0.048054
throughput change = 0.00275482
Class 0:
Packet latency average = 64.3202
	minimum = 7
	maximum = 1683
Network latency average = 36.3466
	minimum = 7
	maximum = 482
Slowest packet = 16129
Flit latency average = 37.2676
	minimum = 7
	maximum = 482
Slowest flit = 17082
Fragmentation average = 0
	minimum = 0
	maximum = 0
Injected packet rate average = 0.049375
	minimum = 0.0284 (at node 3)
	maximum = 0.06 (at node 10)
Accepted packet rate average = 0.04905
	minimum = 0.0292 (at node 12)
	maximum = 0.06 (at node 10)
Injected flit rate average = 0.049375
	minimum = 0.0284 (at node 3)
	maximum = 0.06 (at node 10)
Accepted flit rate average= 0.04905
	minimum = 0.0292 (at node 12)
	maximum = 0.06 (at node 10)
Injected packet length average = 1
Accepted packet length average = 1
Total in-flight flits = 40 (40 measured)
latency change    = 0.0766549
throughput change = 0.00216616
Class 0:
Packet latency average = 69.1447
	minimum = 7
	maximum = 1865
Network latency average = 37.3725
	minimum = 7
	maximum = 482
Slowest packet = 16129
Flit latency average = 38.1349
	minimum = 7
	maximum = 482
Slowest flit = 17082
Fragmentation average = 0
	minimum = 0
	maximum = 0
Injected packet rate average = 0.0488125
	minimum = 0.0276667 (at node 3)
	maximum = 0.058 (at node 10)
Accepted packet rate average = 0.0486458
	minimum = 0.0283333 (at node 12)
	maximum = 0.058 (at node 10)
Injected flit rate average = 0.0488125
	minimum = 0.0276667 (at node 3)
	maximum = 0.058 (at node 10)
Accepted flit rate average= 0.0486458
	minimum = 0.0283333 (at node 12)
	maximum = 0.058 (at node 10)
Injected packet length average = 1
Accepted packet length average = 1
Total in-flight flits = 35 (35 measured)
latency change    = 0.0697726
throughput change = 0.00830835
Class 0:
Packet latency average = 72.7029
	minimum = 7
	maximum = 2096
Network latency average = 37.3398
	minimum = 7
	maximum = 482
Slowest packet = 16129
Flit latency average = 37.9894
	minimum = 7
	maximum = 482
Slowest flit = 17082
Fragmentation average = 0
	minimum = 0
	maximum = 0
Injected packet rate average = 0.0490536
	minimum = 0.0271429 (at node 3)
	maximum = 0.0577143 (at node 10)
Accepted packet rate average = 0.0489643
	minimum = 0.0277143 (at node 12)
	maximum = 0.0577143 (at node 10)
Injected flit rate average = 0.0490536
	minimum = 0.0271429 (at node 3)
	maximum = 0.0577143 (at node 10)
Accepted flit rate average= 0.0489643
	minimum = 0.0277143 (at node 12)
	maximum = 0.0577143 (at node 10)
Injected packet length average = 1
Accepted packet length average = 1
Total in-flight flits = 32 (32 measured)
latency change    = 0.048942
throughput change = 0.00650377
Draining all recorded packets ...
Class 0:
Remaining flits: 19303 19380 19415 19527 19554 19564 19579 19599 19611 19618 [...] (34 flits)
Measured flits: 19303 19380 19415 19527 19554 19564 19579 19631 19643 19648 [...] (11 flits)
Class 0:
Remaining flits: 20159 20241 20257 20275 20308 20328 20329 20336 20341 20348 [...] (28 flits)
Measured flits: 20159 20241 20257 20275 20341 20348 20380 20396 (8 flits)
Class 0:
Remaining flits: 20905 20981 21023 21088 21105 21130 21133 21165 21178 21193 [...] (38 flits)
Measured flits: 20905 20981 21023 21088 21105 21165 21199 21211 21226 (9 flits)
Draining remaining packets ...
Time taken is 9091 cycles
Class 0:
Packet latency average = 28.9049
	minimum = 7
	maximum = 205
Network latency average = 28.4674
	minimum = 7
	maximum = 205
Slowest packet = 22188
Flit latency average = 28.4674
	minimum = 7
	maximum = 205
Slowest flit = 22188
Fragmentation average = 0
	minimum = 0
	maximum = 0
Injected packet rate average = 0.049375
	minimum = 0.03 (at node 7)
	maximum = 0.07 (at node 1)
Accepted packet rate average = 0.046
	minimum = 0.024 (at node 12)
	maximum = 0.066 (at node 4)
Injected flit rate average = 0.049375
	minimum = 0.03 (at node 7)
	maximum = 0.07 (at node 1)
Accepted flit rate average= 0.046
	minimum = 0.024 (at node 12)
	maximum = 0.066 (at node 4)
Injected packet length average = 1
Accepted packet length average = 1
Total in-flight flits = 28 (0 measured)
latency change    = 1
throughput change = 1
Class 0:
Packet latency average = 35.5987
	minimum = 7
	maximum = 412
Network latency average = 32.775
	minimum = 7
	maximum = 363
Slowest packet = 22318
Flit latency average = 32.775
	minimum = 7
	maximum = 363
Slowest flit = 22318
Fragmentation average = 0
	minimum = 0
	maximum = 0
Injected packet rate average = 0.0494375
	minimum = 0.033 (at node 3)
	maximum = 0.058 (at node 13)
Accepted packet rate average = 0.0475
	minimum = 0.025 (at node 12)
	maximum = 0.054 (at node 6)
Injected flit rate average = 0.0494375
	minimum = 0.033 (at node 3)
	maximum = 0.058 (at node 13)
Accepted flit rate average= 0.0475
	minimum = 0.025 (at node 12)
	maximum = 0.054 (at node 6)
Injected packet length average = 1
Accepted packet length average = 1
Total in-flight flits = 33 (0 measured)
latency change    = 0.188035
throughput change = 0.0315789
Class 0:
Packet latency average = 51.4961
	minimum = 7
	maximum = 561
Network latency average = 39.787
	minimum = 7
	maximum = 334
Slowest packet = 22476
Flit latency average = 39.787
	minimum = 7
	maximum = 334
Slowest flit = 22845
Fragmentation average = 0
	minimum = 0
	maximum = 0
Injected packet rate average = 0.048
	minimum = 0.026 (at node 3)
	maximum = 0.064 (at node 13)
Accepted packet rate average = 0.048125
	minimum = 0.028 (at node 12)
	maximum = 0.07 (at node 3)
Injected flit rate average = 0.048
	minimum = 0.026 (at node 3)
	maximum = 0.064 (at node 13)
Accepted flit rate average= 0.048125
	minimum = 0.028 (at node 12)
	maximum = 0.07 (at node 3)
Injected packet length average = 1
Accepted packet length average = 1
Total in-flight flits = 32 (0 measured)
latency change    = 0.308711
throughput change = 0.012987
Warmed up ...Time used is 1500 cycles
Class 0:
Packet latency average = 40.3479
	minimum = 7
	maximum = 798
Network latency average = 28.7671
	minimum = 7
	maximum = 370
Slowest packet = 23221
Flit latency average = 38.8312
	minimum = 7
	maximum = 397
Slowest flit = 22953
Fragmentation average = 0
	minimum = 0
	maximum = 0
Injected packet rate average = 0.04975
	minimum = 0.024 (at node 3)
	maximum = 0.066 (at node 11)
Accepted packet rate average = 0.049625
	minimum = 0.024 (at node 12)
	maximum = 0.066 (at node 15)
Injected flit rate average = 0.04975
	minimum = 0.024 (at node 3)
	maximum = 0.066 (at node 11)
Accepted flit rate average= 0.049625
	minimum = 0.024 (at node 12)
	maximum = 0.066 (at node 15)
Injected packet length average = 1
Accepted packet length average = 1
Total in-flight flits = 33 (33 measured)
latency change    = 0.276301
throughput change = 0.0302267
Class 0:
Packet latency average = 51.7484
	minimum = 7
	maximum = 1066
Network latency average = 34.9543
	minimum = 7
	maximum = 413
Slowest packet = 23221
Flit latency average = 39.591
	minimum = 7
	maximum = 413
Slowest flit = 23426
Fragmentation average = 0
	minimum = 0
	maximum = 0
Injected packet rate average = 0.0513125
	minimum = 0.025 (at node 3)
	maximum = 0.064 (at node 12)
Accepted packet rate average = 0.0511875
	minimum = 0.023 (at node 12)
	maximum = 0.064 (at node 3)
Injected flit rate average = 0.0513125
	minimum = 0.025 (at node 3)
	maximum = 0.064 (at node 12)
Accepted flit rate average= 0.0511875
	minimum = 0.023 (at node 12)
	maximum = 0.064 (at node 3)
Injected packet length average = 1
Accepted packet length average = 1
Total in-flight flits = 33 (33 measured)
latency change    = 0.220306
throughput change = 0.030525
Class 0:
Packet latency average = 61.1167
	minimum = 7
	maximum = 1424
Network latency average = 35.673
	minimum = 7
	maximum = 413
Slowest packet = 23221
Flit latency average = 38.7169
	minimum = 7
	maximum = 413
Slowest flit = 23426
Fragmentation average = 0
	minimum = 0
	maximum = 0
Injected packet rate average = 0.0520833
	minimum = 0.0286667 (at node 3)
	maximum = 0.0633333 (at node 11)
Accepted packet rate average = 0.0516667
	minimum = 0.0266667 (at node 12)
	maximum = 0.0633333 (at node 14)
Injected flit rate average = 0.0520833
	minimum = 0.0286667 (at node 3)
	maximum = 0.0633333 (at node 11)
Accepted flit rate average= 0.0516667
	minimum = 0.0266667 (at node 12)
	maximum = 0.0633333 (at node 14)
Injected packet length average = 1
Accepted packet length average = 1
Total in-flight flits = 41 (41 measured)
latency change    = 0.153286
throughput change = 0.00927419
Class 0:
Packet latency average = 65.8879
	minimum = 7
	maximum = 1655
Network latency average = 37.1635
	minimum = 7
	maximum = 414
Slowest packet = 23221
Flit latency average = 39.4262
	minimum = 7
	maximum = 414
Slowest flit = 24364
Fragmentation average = 0
	minimum = 0
	maximum = 0
Injected packet rate average = 0.0515625
	minimum = 0.027 (at node 3)
	maximum = 0.062 (at node 12)
Accepted packet rate average = 0.0514688
	minimum = 0.026 (at node 12)
	maximum = 0.06 (at node 3)
Injected flit rate average = 0.0515625
	minimum = 0.027 (at node 3)
	maximum = 0.062 (at node 12)
Accepted flit rate average= 0.0514688
	minimum = 0.026 (at node 12)
	maximum = 0.06 (at node 3)
Injected packet length average = 1
Accepted packet length average = 1
Total in-flight flits = 35 (35 measured)
latency change    = 0.0724139
throughput change = 0.00384538
Class 0:
Packet latency average = 72.5134
	minimum = 7
	maximum = 1962
Network latency average = 37.4622
	minimum = 7
	maximum = 414
Slowest packet = 23221
Flit latency average = 39.2826
	minimum = 7
	maximum = 414
Slowest flit = 24364
Fragmentation average = 0
	minimum = 0
	maximum = 0
Injected packet rate average = 0.051075
	minimum = 0.0264 (at node 3)
	maximum = 0.0616 (at node 15)
Accepted packet rate average = 0.05105
	minimum = 0.0256 (at node 12)
	maximum = 0.0616 (at node 15)
Injected flit rate average = 0.051075
	minimum = 0.0264 (at node 3)
	maximum = 0.0616 (at node 15)
Accepted flit rate average= 0.05105
	minimum = 0.0256 (at node 12)
	maximum = 0.0616 (at node 15)
Injected packet length average = 1
Accepted packet length average = 1
Total in-flight flits = 33 (33 measured)
latency change    = 0.0913694
throughput change = 0.00820274
Class 0:
Packet latency average = 79.2867
	minimum = 7
	maximum = 2321
Network latency average = 37.7885
	minimum = 7
	maximum = 431
Slowest packet = 23221
Flit latency average = 39.3171
	minimum = 7
	maximum = 431
Slowest flit = 25072
Fragmentation average = 0
	minimum = 0
	maximum = 0
Injected packet rate average = 0.0503542
	minimum = 0.0256667 (at node 3)
	maximum = 0.06 (at node 15)
Accepted packet rate average = 0.0505208
	minimum = 0.0256667 (at node 12)
	maximum = 0.0603333 (at node 15)
Injected flit rate average = 0.0503542
	minimum = 0.0256667 (at node 3)
	maximum = 0.06 (at node 15)
Accepted flit rate average= 0.0505208
	minimum = 0.0256667 (at node 12)
	maximum = 0.0603333 (at node 15)
Injected packet length average = 1
Accepted packet length average = 1
Total in-flight flits = 24 (24 measured)
latency change    = 0.0854272
throughput change = 0.0104742
Class 0:
Packet latency average = 86.503
	minimum = 7
	maximum = 2499
Network latency average = 37.7596
	minimum = 7
	maximum = 431
Slowest packet = 23221
Flit latency average = 39.0748
	minimum = 7
	maximum = 431
Slowest flit = 25072
Fragmentation average = 0
	minimum = 0
	maximum = 0
Injected packet rate average = 0.0504286
	minimum = 0.026 (at node 3)
	maximum = 0.0597143 (at node 15)
Accepted packet rate average = 0.0503393
	minimum = 0.0262857 (at node 12)
	maximum = 0.0597143 (at node 15)
Injected flit rate average = 0.0504286
	minimum = 0.026 (at node 3)
	maximum = 0.0597143 (at node 15)
Accepted flit rate average= 0.0503393
	minimum = 0.0262857 (at node 12)
	maximum = 0.0597143 (at node 15)
Injected packet length average = 1
Accepted packet length average = 1
Total in-flight flits = 37 (37 measured)
latency change    = 0.0834234
throughput change = 0.00360648
Draining all recorded packets ...
Class 0:
Remaining flits: 26538 26605 26617 26621 26641 26643 26649 26661 26665 26676 [...] (27 flits)
Measured flits: 26538 26605 26617 26621 26641 26676 26684 26692 (8 flits)
Class 0:
Remaining flits: 27252 27340 27363 27427 27434 27440 27447 27452 27483 27492 [...] (31 flits)
Measured flits: 27252 27340 27363 27447 27483 27492 27506 27534 (8 flits)
Class 0:
Remaining flits: 27944 28052 28087 28155 28166 28182 28192 28210 28212 28251 [...] (29 flits)
Measured flits: 27944 28052 28087 28155 28166 28182 28192 28282 28319 (9 flits)
Class 0:
Remaining flits: 28845 28903 28941 28947 28962 28995 29006 29021 29028 29035 [...] (36 flits)
Measured flits: 28845 28903 28941 28962 29021 29035 29055 29069 (8 flits)
Draining remaining packets ...
Time taken is 9779 cycles
Class 0:
Packet latency average = 23.4342
	minimum = 7
	maximum = 97
Network latency average = 23.4342
	minimum = 7
	maximum = 97
Slowest packet = 29802
Flit latency average = 23.4342
	minimum = 7
	maximum = 97
Slowest flit = 29802
Fragmentation average = 0
	minimum = 0
	maximum = 0
Injected packet rate average = 0.04975
	minimum = 0.032 (at node 3)
	maximum = 0.07 (at node 14)
Accepted packet rate average = 0.0475
	minimum = 0.028 (at node 3)
	maximum = 0.068 (at node 11)
Injected flit rate average = 0.04975
	minimum = 0.032 (at node 3)
	maximum = 0.07 (at node 14)
Accepted flit rate average= 0.0475
	minimum = 0.028 (at node 3)
	maximum = 0.068 (at node 11)
Injected packet length average = 1
Accepted packet length average = 1
Total in-flight flits = 18 (0 measured)
latency change    = 1
throughput change = 1
Class 0:
Packet latency average = 26.1828
	minimum = 7
	maximum = 238
Network latency average = 26.1457
	minimum = 7
	maximum = 238
Slowest packet = 30143
Flit latency average = 26.1457
	minimum = 7
	maximum = 238
Slowest flit = 30143
Fragmentation average = 0
	minimum = 0
	maximum = 0
Injected packet rate average = 0.049125
	minimum = 0.036 (at node 3)
	maximum = 0.062 (at node 14)
Accepted packet rate average = 0.0471875
	minimum = 0.027 (at node 12)
	maximum = 0.06 (at node 11)
Injected flit rate average = 0.049125
	minimum = 0.036 (at node 3)
	maximum = 0.062 (at node 14)
Accepted flit rate average= 0.0471875
	minimum = 0.027 (at node 12)
	maximum = 0.06 (at node 11)
Injected packet length average = 1
Accepted packet length average = 1
Total in-flight flits = 32 (0 measured)
latency change    = 0.104976
throughput change = 0.00662252
Class 0:
Packet latency average = 38.4656
	minimum = 7
	maximum = 446
Network latency average = 37.0153
	minimum = 7
	maximum = 424
Slowest packet = 30197
Flit latency average = 37.0153
	minimum = 7
	maximum = 424
Slowest flit = 30333
Fragmentation average = 0
	minimum = 0
	maximum = 0
Injected packet rate average = 0.048875
	minimum = 0.03 (at node 3)
	maximum = 0.068 (at node 12)
Accepted packet rate average = 0.049125
	minimum = 0.028 (at node 12)
	maximum = 0.07 (at node 3)
Injected flit rate average = 0.048875
	minimum = 0.03 (at node 3)
	maximum = 0.068 (at node 12)
Accepted flit rate average= 0.049125
	minimum = 0.028 (at node 12)
	maximum = 0.07 (at node 3)
Injected packet length average = 1
Accepted packet length average = 1
Total in-flight flits = 30 (0 measured)
latency change    = 0.31932
throughput change = 0.0394402
Warmed up ...Time used is 1500 cycles
Class 0:
Packet latency average = 34.9455
	minimum = 7
	maximum = 667
Network latency average = 30.0245
	minimum = 7
	maximum = 312
Slowest packet = 30814
Flit latency average = 36.6373
	minimum = 7
	maximum = 357
Slowest flit = 30441
Fragmentation average = 0
	minimum = 0
	maximum = 0
Injected packet rate average = 0.049875
	minimum = 0.028 (at node 9)
	maximum = 0.068 (at node 14)
Accepted packet rate average = 0.049625
	minimum = 0.028 (at node 14)
	maximum = 0.07 (at node 11)
Injected flit rate average = 0.049875
	minimum = 0.028 (at node 9)
	maximum = 0.068 (at node 14)
Accepted flit rate average= 0.049625
	minimum = 0.028 (at node 14)
	maximum = 0.07 (at node 11)
Injected packet length average = 1
Accepted packet length average = 1
Total in-flight flits = 33 (33 measured)
latency change    = 0.100732
throughput change = 0.0100756
Class 0:
Packet latency average = 45.751
	minimum = 7
	maximum = 774
Network latency average = 34.498
	minimum = 7
	maximum = 341
Slowest packet = 30814
Flit latency average = 37.7206
	minimum = 7
	maximum = 357
Slowest flit = 30441
Fragmentation average = 0
	minimum = 0
	maximum = 0
Injected packet rate average = 0.048375
	minimum = 0.027 (at node 3)
	maximum = 0.061 (at node 4)
Accepted packet rate average = 0.0483125
	minimum = 0.029 (at node 12)
	maximum = 0.06 (at node 15)
Injected flit rate average = 0.048375
	minimum = 0.027 (at node 3)
	maximum = 0.061 (at node 4)
Accepted flit rate average= 0.0483125
	minimum = 0.029 (at node 12)
	maximum = 0.06 (at node 15)
Injected packet length average = 1
Accepted packet length average = 1
Total in-flight flits = 32 (32 measured)
latency change    = 0.236181
throughput change = 0.0271669
Class 0:
Packet latency average = 51.8445
	minimum = 7
	maximum = 1016
Network latency average = 36.33
	minimum = 7
	maximum = 357
Slowest packet = 30814
Flit latency average = 38.4745
	minimum = 7
	maximum = 357
Slowest flit = 30441
Fragmentation average = 0
	minimum = 0
	maximum = 0
Injected packet rate average = 0.0469167
	minimum = 0.0273333 (at node 3)
	maximum = 0.0593333 (at node 15)
Accepted packet rate average = 0.0473333
	minimum = 0.0286667 (at node 12)
	maximum = 0.0593333 (at node 15)
Injected flit rate average = 0.0469167
	minimum = 0.0273333 (at node 3)
	maximum = 0.0593333 (at node 15)
Accepted flit rate average= 0.0473333
	minimum = 0.0286667 (at node 12)
	maximum = 0.0593333 (at node 15)
Injected packet length average = 1
Accepted packet length average = 1
Total in-flight flits = 20 (20 measured)
latency change    = 0.117534
throughput change = 0.0206866
Class 0:
Packet latency average = 57.0287
	minimum = 7
	maximum = 1244
Network latency average = 36.4245
	minimum = 7
	maximum = 387
Slowest packet = 30814
Flit latency average = 38.0543
	minimum = 7
	maximum = 387
Slowest flit = 31835
Fragmentation average = 0
	minimum = 0
	maximum = 0
Injected packet rate average = 0.0464688
	minimum = 0.028 (at node 3)
	maximum = 0.059 (at node 15)
Accepted packet rate average = 0.0466563
	minimum = 0.029 (at node 12)
	maximum = 0.0585 (at node 15)
Injected flit rate average = 0.0464688
	minimum = 0.028 (at node 3)
	maximum = 0.059 (at node 15)
Accepted flit rate average= 0.0466563
	minimum = 0.029 (at node 12)
	maximum = 0.0585 (at node 15)
Injected packet length average = 1
Accepted packet length average = 1
Total in-flight flits = 24 (24 measured)
latency change    = 0.0909055
throughput change = 0.0145122
Class 0:
Packet latency average = 61.0838
	minimum = 7
	maximum = 1451
Network latency average = 36.7459
	minimum = 7
	maximum = 401
Slowest packet = 30814
Flit latency average = 38.0434
	minimum = 7
	maximum = 401
Slowest flit = 32031
Fragmentation average = 0
	minimum = 0
	maximum = 0
Injected packet rate average = 0.046825
	minimum = 0.0276 (at node 3)
	maximum = 0.058 (at node 15)
Accepted packet rate average = 0.0467
	minimum = 0.0284 (at node 12)
	maximum = 0.0576 (at node 15)
Injected flit rate average = 0.046825
	minimum = 0.0276 (at node 3)
	maximum = 0.058 (at node 15)
Accepted flit rate average= 0.0467
	minimum = 0.0284 (at node 12)
	maximum = 0.0576 (at node 15)
Injected packet length average = 1
Accepted packet length average = 1
Total in-flight flits = 36 (36 measured)
latency change    = 0.0663855
throughput change = 0.000936831
Class 0:
Packet latency average = 67.0134
	minimum = 7
	maximum = 1608
Network latency average = 37.4461
	minimum = 7
	maximum = 472
Slowest packet = 30814
Flit latency average = 38.5068
	minimum = 7
	maximum = 472
Slowest flit = 32438
Fragmentation average = 0
	minimum = 0
	maximum = 0
Injected packet rate average = 0.0471667
	minimum = 0.0283333 (at node 3)
	maximum = 0.0553333 (at node 15)
Accepted packet rate average = 0.0471875
	minimum = 0.029 (at node 12)
	maximum = 0.0553333 (at node 15)
Injected flit rate average = 0.0471667
	minimum = 0.0283333 (at node 3)
	maximum = 0.0553333 (at node 15)
Accepted flit rate average= 0.0471875
	minimum = 0.029 (at node 12)
	maximum = 0.0553333 (at node 15)
Injected packet length average = 1
Accepted packet length average = 1
Total in-flight flits = 30 (30 measured)
latency change    = 0.0884843
throughput change = 0.0103311
Class 0:
Packet latency average = 69.6943
	minimum = 7
	maximum = 1761
Network latency average = 37.1309
	minimum = 7
	maximum = 472
Slowest packet = 30814
Flit latency average = 38.0333
	minimum = 7
	maximum = 472
Slowest flit = 32438
Fragmentation average = 0
	minimum = 0
	maximum = 0
Injected packet rate average = 0.0477857
	minimum = 0.0285714 (at node 3)
	maximum = 0.0562857 (at node 15)
Accepted packet rate average = 0.0477321
	minimum = 0.0288571 (at node 12)
	maximum = 0.0562857 (at node 15)
Injected flit rate average = 0.0477857
	minimum = 0.0285714 (at node 3)
	maximum = 0.0562857 (at node 15)
Accepted flit rate average= 0.0477321
	minimum = 0.0288571 (at node 12)
	maximum = 0.0562857 (at node 15)
Injected packet length average = 1
Accepted packet length average = 1
Total in-flight flits = 33 (33 measured)
latency change    = 0.0384661
throughput change = 0.0114104
Draining all recorded packets ...
Class 0:
Remaining flits: 33894 33966 33976 34037 34044 34046 34083 34087 34096 34100 [...] (30 flits)
Measured flits: 33894 33966 33976 34046 34083 34087 34096 34177 (8 flits)
Class 0:
Remaining flits: 34659 34745 34762 34765 34815 34819 34830 34874 34883 34891 [...] (31 flits)
Measured flits: 34659 34745 34762 34765 34815 34891 34910 34915 (8 flits)
Class 0:
Remaining flits: 35524 35536 35571 35583 35593 35602 35616 35628 35663 35668 [...] (29 flits)
Measured flits: 35524 35536 35571 35616 35628 35663 35686 35729 (8 flits)
Draining remaining packets ...
Time taken is 8932 cycles
Class 0:
Packet latency average = 29.2225
	minimum = 7
	maximum = 167
Network latency average = 29.1571
	minimum = 7
	maximum = 167
Slowest packet = 36360
Flit latency average = 29.1571
	minimum = 7
	maximum = 167
Slowest flit = 36360
Fragmentation average = 0
	minimum = 0
	maximum = 0
Injected packet rate average = 0.050875
	minimum = 0.028 (at node 1)
	maximum = 0.074 (at node 15)
Accepted packet rate average = 0.04775
	minimum = 0.028 (at node 4)
	maximum = 0.074 (at node 15)
Injected flit rate average = 0.050875
	minimum = 0.028 (at node 1)
	maximum = 0.074 (at node 15)
Accepted flit rate average= 0.04775
	minimum = 0.028 (at node 4)
	maximum = 0.074 (at node 15)
Injected packet length average = 1
Accepted packet length average = 1
Total in-flight flits = 25 (0 measured)
latency change    = 1
throughput change = 1
Class 0:
Packet latency average = 33.7703
	minimum = 7
	maximum = 297
Network latency average = 33.1405
	minimum = 7
	maximum = 297
Slowest packet = 36608
Flit latency average = 33.1405
	minimum = 7
	maximum = 297
Slowest flit = 36608
Fragmentation average = 0
	minimum = 0
	maximum = 0
Injected packet rate average = 0.0478125
	minimum = 0.037 (at node 1)
	maximum = 0.056 (at node 4)
Accepted packet rate average = 0.04625
	minimum = 0.032 (at node 4)
	maximum = 0.056 (at node 15)
Injected flit rate average = 0.0478125
	minimum = 0.037 (at node 1)
	maximum = 0.056 (at node 4)
Accepted flit rate average= 0.04625
	minimum = 0.032 (at node 4)
	maximum = 0.056 (at node 15)
Injected packet length average = 1
Accepted packet length average = 1
Total in-flight flits = 27 (0 measured)
latency change    = 0.134667
throughput change = 0.0324324
Class 0:
Packet latency average = 46.1046
	minimum = 7
	maximum = 588
Network latency average = 37.6684
	minimum = 7
	maximum = 376
Slowest packet = 36891
Flit latency average = 37.6684
	minimum = 7
	maximum = 376
Slowest flit = 37020
Fragmentation average = 0
	minimum = 0
	maximum = 0
Injected packet rate average = 0.04875
	minimum = 0.028 (at node 3)
	maximum = 0.06 (at node 0)
Accepted packet rate average = 0.049
	minimum = 0.024 (at node 12)
	maximum = 0.064 (at node 4)
Injected flit rate average = 0.04875
	minimum = 0.028 (at node 3)
	maximum = 0.06 (at node 0)
Accepted flit rate average= 0.049
	minimum = 0.024 (at node 12)
	maximum = 0.064 (at node 4)
Injected packet length average = 1
Accepted packet length average = 1
Total in-flight flits = 25 (0 measured)
latency change    = 0.267529
throughput change = 0.0561224
Warmed up ...Time used is 1500 cycles
Class 0:
Packet latency average = 37.9616
	minimum = 7
	maximum = 767
Network latency average = 31.0822
	minimum = 7
	maximum = 303
Slowest packet = 37500
Flit latency average = 39.6615
	minimum = 7
	maximum = 411
Slowest flit = 37406
Fragmentation average = 0
	minimum = 0
	maximum = 0
Injected packet rate average = 0.049125
	minimum = 0.026 (at node 3)
	maximum = 0.062 (at node 9)
Accepted packet rate average = 0.04875
	minimum = 0.03 (at node 12)
	maximum = 0.06 (at node 1)
Injected flit rate average = 0.049125
	minimum = 0.026 (at node 3)
	maximum = 0.062 (at node 9)
Accepted flit rate average= 0.04875
	minimum = 0.03 (at node 12)
	maximum = 0.06 (at node 1)
Injected packet length average = 1
Accepted packet length average = 1
Total in-flight flits = 27 (27 measured)
latency change    = 0.214505
throughput change = 0.00512821
Class 0:
Packet latency average = 49.8238
	minimum = 7
	maximum = 997
Network latency average = 34.2728
	minimum = 7
	maximum = 437
Slowest packet = 37500
Flit latency average = 38.402
	minimum = 7
	maximum = 437
Slowest flit = 37658
Fragmentation average = 0
	minimum = 0
	maximum = 0
Injected packet rate average = 0.05025
	minimum = 0.03 (at node 3)
	maximum = 0.066 (at node 11)
Accepted packet rate average = 0.0494375
	minimum = 0.03 (at node 12)
	maximum = 0.066 (at node 14)
Injected flit rate average = 0.05025
	minimum = 0.03 (at node 3)
	maximum = 0.066 (at node 11)
Accepted flit rate average= 0.0494375
	minimum = 0.03 (at node 12)
	maximum = 0.066 (at node 14)
Injected packet length average = 1
Accepted packet length average = 1
Total in-flight flits = 38 (38 measured)
latency change    = 0.238082
throughput change = 0.0139064
Class 0:
Packet latency average = 56.8622
	minimum = 7
	maximum = 1277
Network latency average = 35.2426
	minimum = 7
	maximum = 437
Slowest packet = 37500
Flit latency average = 37.9924
	minimum = 7
	maximum = 437
Slowest flit = 37658
Fragmentation average = 0
	minimum = 0
	maximum = 0
Injected packet rate average = 0.049625
	minimum = 0.028 (at node 3)
	maximum = 0.06 (at node 11)
Accepted packet rate average = 0.049125
	minimum = 0.0286667 (at node 12)
	maximum = 0.0593333 (at node 14)
Injected flit rate average = 0.049625
	minimum = 0.028 (at node 3)
	maximum = 0.06 (at node 11)
Accepted flit rate average= 0.049125
	minimum = 0.0286667 (at node 12)
	maximum = 0.0593333 (at node 14)
Injected packet length average = 1
Accepted packet length average = 1
Total in-flight flits = 36 (36 measured)
latency change    = 0.123781
throughput change = 0.00636132
Class 0:
Packet latency average = 65.4954
	minimum = 7
	maximum = 1490
Network latency average = 36.7804
	minimum = 7
	maximum = 437
Slowest packet = 37500
Flit latency average = 38.8647
	minimum = 7
	maximum = 437
Slowest flit = 37658
Fragmentation average = 0
	minimum = 0
	maximum = 0
Injected packet rate average = 0.0481875
	minimum = 0.0275 (at node 3)
	maximum = 0.0575 (at node 11)
Accepted packet rate average = 0.0480312
	minimum = 0.029 (at node 12)
	maximum = 0.057 (at node 14)
Injected flit rate average = 0.0481875
	minimum = 0.0275 (at node 3)
	maximum = 0.0575 (at node 11)
Accepted flit rate average= 0.0480312
	minimum = 0.029 (at node 12)
	maximum = 0.057 (at node 14)
Injected packet length average = 1
Accepted packet length average = 1
Total in-flight flits = 30 (30 measured)
latency change    = 0.131813
throughput change = 0.0227716
Class 0:
Packet latency average = 67.8751
	minimum = 7
	maximum = 1597
Network latency average = 36.9031
	minimum = 7
	maximum = 437
Slowest packet = 37500
Flit latency average = 38.5673
	minimum = 7
	maximum = 437
Slowest flit = 37658
Fragmentation average = 0
	minimum = 0
	maximum = 0
Injected packet rate average = 0.04835
	minimum = 0.0272 (at node 3)
	maximum = 0.0556 (at node 11)
Accepted packet rate average = 0.048075
	minimum = 0.0272 (at node 12)
	maximum = 0.0556 (at node 14)
Injected flit rate average = 0.04835
	minimum = 0.0272 (at node 3)
	maximum = 0.0556 (at node 11)
Accepted flit rate average= 0.048075
	minimum = 0.0272 (at node 12)
	maximum = 0.0556 (at node 14)
Injected packet length average = 1
Accepted packet length average = 1
Total in-flight flits = 36 (36 measured)
latency change    = 0.0350609
throughput change = 0.000910036
Class 0:
Packet latency average = 70.9347
	minimum = 7
	maximum = 1831
Network latency average = 37.0771
	minimum = 7
	maximum = 437
Slowest packet = 37500
Flit latency average = 38.4541
	minimum = 7
	maximum = 437
Slowest flit = 37658
Fragmentation average = 0
	minimum = 0
	maximum = 0
Injected packet rate average = 0.0483333
	minimum = 0.0266667 (at node 3)
	maximum = 0.0556667 (at node 11)
Accepted packet rate average = 0.0483542
	minimum = 0.027 (at node 12)
	maximum = 0.0553333 (at node 14)
Injected flit rate average = 0.0483333
	minimum = 0.0266667 (at node 3)
	maximum = 0.0556667 (at node 11)
Accepted flit rate average= 0.0483542
	minimum = 0.027 (at node 12)
	maximum = 0.0553333 (at node 14)
Injected packet length average = 1
Accepted packet length average = 1
Total in-flight flits = 23 (23 measured)
latency change    = 0.0431318
throughput change = 0.00577337
Class 0:
Packet latency average = 74.4415
	minimum = 7
	maximum = 2147
Network latency average = 37.3231
	minimum = 7
	maximum = 437
Slowest packet = 37500
Flit latency average = 38.4928
	minimum = 7
	maximum = 437
Slowest flit = 37658
Fragmentation average = 0
	minimum = 0
	maximum = 0
Injected packet rate average = 0.0489286
	minimum = 0.0265714 (at node 3)
	maximum = 0.0562857 (at node 11)
Accepted packet rate average = 0.0486964
	minimum = 0.0268571 (at node 12)
	maximum = 0.0554286 (at node 14)
Injected flit rate average = 0.0489286
	minimum = 0.0265714 (at node 3)
	maximum = 0.0562857 (at node 11)
Accepted flit rate average= 0.0486964
	minimum = 0.0268571 (at node 12)
	maximum = 0.0554286 (at node 14)
Injected packet length average = 1
Accepted packet length average = 1
Total in-flight flits = 38 (38 measured)
latency change    = 0.0471089
throughput change = 0.00702848
Draining all recorded packets ...
Class 0:
Remaining flits: 40805 40815 40837 40889 40901 40903 40926 40927 40946 40953 [...] (31 flits)
Measured flits: 40805 40815 40837 40946 40954 40974 40991 (7 flits)
Class 0:
Remaining flits: 41499 41568 41637 41646 41657 41676 41700 41724 41732 41743 [...] (31 flits)
Measured flits: 41499 41568 41637 41646 41657 41676 41747 41759 (8 flits)
Class 0:
Remaining flits: 42339 42364 42382 42421 42440 42466 42468 42469 42474 42483 [...] (30 flits)
Measured flits: 42339 42364 42382 42421 42440 42466 42469 42507 42543 42559 (10 flits)
Class 0:
Remaining flits: 43063 43113 43135 43172 43175 43192 43223 43239 43244 43249 [...] (34 flits)
Measured flits: 43063 43113 43135 43172 43192 43244 43256 43284 43296 (9 flits)
Draining remaining packets ...
Time taken is 9716 cycles
Class 0:
Packet latency average = 31.0268
	minimum = 7
	maximum = 269
Network latency average = 30.311
	minimum = 7
	maximum = 269
Slowest packet = 43902
Flit latency average = 30.311
	minimum = 7
	maximum = 269
Slowest flit = 43902
Fragmentation average = 0
	minimum = 0
	maximum = 0
Injected packet rate average = 0.051875
	minimum = 0.04 (at node 1)
	maximum = 0.064 (at node 10)
Accepted packet rate average = 0.046625
	minimum = 0.03 (at node 12)
	maximum = 0.064 (at node 10)
Injected flit rate average = 0.051875
	minimum = 0.04 (at node 1)
	maximum = 0.064 (at node 10)
Accepted flit rate average= 0.046625
	minimum = 0.03 (at node 12)
	maximum = 0.064 (at node 10)
Injected packet length average = 1
Accepted packet length average = 1
Total in-flight flits = 45 (0 measured)
latency change    = 1
throughput change = 1
Class 0:
Packet latency average = 38.6538
	minimum = 7
	maximum = 621
Network latency average = 35.3088
	minimum = 7
	maximum = 485
Slowest packet = 43949
Flit latency average = 35.3088
	minimum = 7
	maximum = 485
Slowest flit = 44112
Fragmentation average = 0
	minimum = 0
	maximum = 0
Injected packet rate average = 0.05175
	minimum = 0.036 (at node 3)
	maximum = 0.062 (at node 4)
Accepted packet rate average = 0.0501875
	minimum = 0.028 (at node 12)
	maximum = 0.062 (at node 1)
Injected flit rate average = 0.05175
	minimum = 0.036 (at node 3)
	maximum = 0.062 (at node 4)
Accepted flit rate average= 0.0501875
	minimum = 0.028 (at node 12)
	maximum = 0.062 (at node 1)
Injected packet length average = 1
Accepted packet length average = 1
Total in-flight flits = 26 (0 measured)
latency change    = 0.197315
throughput change = 0.0709838
Class 0:
Packet latency average = 53.349
	minimum = 7
	maximum = 751
Network latency average = 37.1524
	minimum = 7
	maximum = 456
Slowest packet = 44419
Flit latency average = 37.1524
	minimum = 7
	maximum = 456
Slowest flit = 44268
Fragmentation average = 0
	minimum = 0
	maximum = 0
Injected packet rate average = 0.046375
	minimum = 0.024 (at node 3)
	maximum = 0.076 (at node 10)
Accepted packet rate average = 0.045125
	minimum = 0.028 (at node 1)
	maximum = 0.074 (at node 10)
Injected flit rate average = 0.046375
	minimum = 0.024 (at node 3)
	maximum = 0.076 (at node 10)
Accepted flit rate average= 0.045125
	minimum = 0.028 (at node 1)
	maximum = 0.074 (at node 10)
Injected packet length average = 1
Accepted packet length average = 1
Total in-flight flits = 37 (0 measured)
latency change    = 0.275455
throughput change = 0.112188
Warmed up ...Time used is 1500 cycles
Class 0:
Packet latency average = 43.9162
	minimum = 7
	maximum = 989
Network latency average = 31.1885
	minimum = 7
	maximum = 354
Slowest packet = 44931
Flit latency average = 39.6038
	minimum = 7
	maximum = 453
Slowest flit = 44821
Fragmentation average = 0
	minimum = 0
	maximum = 0
Injected packet rate average = 0.052
	minimum = 0.03 (at node 3)
	maximum = 0.066 (at node 7)
Accepted packet rate average = 0.052375
	minimum = 0.022 (at node 12)
	maximum = 0.072 (at node 13)
Injected flit rate average = 0.052
	minimum = 0.03 (at node 3)
	maximum = 0.066 (at node 7)
Accepted flit rate average= 0.052375
	minimum = 0.022 (at node 12)
	maximum = 0.072 (at node 13)
Injected packet length average = 1
Accepted packet length average = 1
Total in-flight flits = 34 (34 measured)
latency change    = 0.214791
throughput change = 0.138425
Class 0:
Packet latency average = 62.9923
	minimum = 7
	maximum = 1241
Network latency average = 36.3913
	minimum = 7
	maximum = 489
Slowest packet = 44931
Flit latency average = 40.4615
	minimum = 7
	maximum = 489
Slowest flit = 44949
Fragmentation average = 0
	minimum = 0
	maximum = 0
Injected packet rate average = 0.0503125
	minimum = 0.027 (at node 3)
	maximum = 0.06 (at node 11)
Accepted packet rate average = 0.0511875
	minimum = 0.025 (at node 12)
	maximum = 0.064 (at node 13)
Injected flit rate average = 0.0503125
	minimum = 0.027 (at node 3)
	maximum = 0.06 (at node 11)
Accepted flit rate average= 0.0511875
	minimum = 0.025 (at node 12)
	maximum = 0.064 (at node 13)
Injected packet length average = 1
Accepted packet length average = 1
Total in-flight flits = 23 (23 measured)
latency change    = 0.302832
throughput change = 0.023199
Class 0:
Packet latency average = 71.7085
	minimum = 7
	maximum = 1536
Network latency average = 38.0051
	minimum = 7
	maximum = 489
Slowest packet = 44931
Flit latency average = 40.7175
	minimum = 7
	maximum = 489
Slowest flit = 44949
Fragmentation average = 0
	minimum = 0
	maximum = 0
Injected packet rate average = 0.05
	minimum = 0.0266667 (at node 3)
	maximum = 0.0613333 (at node 13)
Accepted packet rate average = 0.0502917
	minimum = 0.0253333 (at node 12)
	maximum = 0.062 (at node 7)
Injected flit rate average = 0.05
	minimum = 0.0266667 (at node 3)
	maximum = 0.0613333 (at node 13)
Accepted flit rate average= 0.0502917
	minimum = 0.0253333 (at node 12)
	maximum = 0.062 (at node 7)
Injected packet length average = 1
Accepted packet length average = 1
Total in-flight flits = 30 (30 measured)
latency change    = 0.121551
throughput change = 0.0178128
Class 0:
Packet latency average = 79.6606
	minimum = 7
	maximum = 1778
Network latency average = 38.7183
	minimum = 7
	maximum = 489
Slowest packet = 44931
Flit latency average = 40.7723
	minimum = 7
	maximum = 489
Slowest flit = 44949
Fragmentation average = 0
	minimum = 0
	maximum = 0
Injected packet rate average = 0.049
	minimum = 0.0265 (at node 3)
	maximum = 0.0605 (at node 13)
Accepted packet rate average = 0.0494062
	minimum = 0.026 (at node 12)
	maximum = 0.062 (at node 13)
Injected flit rate average = 0.049
	minimum = 0.0265 (at node 3)
	maximum = 0.0605 (at node 13)
Accepted flit rate average= 0.0494062
	minimum = 0.026 (at node 12)
	maximum = 0.062 (at node 13)
Injected packet length average = 1
Accepted packet length average = 1
Total in-flight flits = 23 (23 measured)
latency change    = 0.0998244
throughput change = 0.0179211
Class 0:
Packet latency average = 84.354
	minimum = 7
	maximum = 2011
Network latency average = 38.5109
	minimum = 7
	maximum = 489
Slowest packet = 44931
Flit latency average = 40.176
	minimum = 7
	maximum = 489
Slowest flit = 44949
Fragmentation average = 0
	minimum = 0
	maximum = 0
Injected packet rate average = 0.0488
	minimum = 0.0268 (at node 3)
	maximum = 0.06 (at node 7)
Accepted packet rate average = 0.048875
	minimum = 0.026 (at node 12)
	maximum = 0.0612 (at node 13)
Injected flit rate average = 0.0488
	minimum = 0.0268 (at node 3)
	maximum = 0.06 (at node 7)
Accepted flit rate average= 0.048875
	minimum = 0.026 (at node 12)
	maximum = 0.0612 (at node 13)
Injected packet length average = 1
Accepted packet length average = 1
Total in-flight flits = 33 (33 measured)
latency change    = 0.0556392
throughput change = 0.0108696
Class 0:
Packet latency average = 91.1955
	minimum = 7
	maximum = 2163
Network latency average = 37.821
	minimum = 7
	maximum = 489
Slowest packet = 44931
Flit latency average = 39.2206
	minimum = 7
	maximum = 489
Slowest flit = 44949
Fragmentation average = 0
	minimum = 0
	maximum = 0
Injected packet rate average = 0.0486875
	minimum = 0.0286667 (at node 3)
	maximum = 0.0563333 (at node 11)
Accepted packet rate average = 0.0488333
	minimum = 0.028 (at node 12)
	maximum = 0.057 (at node 13)
Injected flit rate average = 0.0486875
	minimum = 0.0286667 (at node 3)
	maximum = 0.0563333 (at node 11)
Accepted flit rate average= 0.0488333
	minimum = 0.028 (at node 12)
	maximum = 0.057 (at node 13)
Injected packet length average = 1
Accepted packet length average = 1
Total in-flight flits = 29 (29 measured)
latency change    = 0.0750199
throughput change = 0.000853242
Class 0:
Packet latency average = 94.7833
	minimum = 7
	maximum = 2387
Network latency average = 38.5017
	minimum = 7
	maximum = 489
Slowest packet = 44931
Flit latency average = 39.7012
	minimum = 7
	maximum = 489
Slowest flit = 44949
Fragmentation average = 0
	minimum = 0
	maximum = 0
Injected packet rate average = 0.0484821
	minimum = 0.028 (at node 3)
	maximum = 0.0554286 (at node 11)
Accepted packet rate average = 0.0484643
	minimum = 0.0277143 (at node 12)
	maximum = 0.0554286 (at node 14)
Injected flit rate average = 0.0484821
	minimum = 0.028 (at node 3)
	maximum = 0.0554286 (at node 11)
Accepted flit rate average= 0.0484643
	minimum = 0.0277143 (at node 12)
	maximum = 0.0554286 (at node 14)
Injected packet length average = 1
Accepted packet length average = 1
Total in-flight flits = 38 (38 measured)
latency change    = 0.0378531
throughput change = 0.00761484
Draining all recorded packets ...
Class 0:
Remaining flits: 48160 48167 48180 48254 48259 48273 48277 48281 48308 48309 [...] (28 flits)
Measured flits: 48160 48167 48180 48254 48259 48281 48308 48353 48363 (9 flits)
Class 0:
Remaining flits: 48849 48876 48917 49001 49018 49037 49042 49047 49100 49105 [...] (27 flits)
Measured flits: 48849 48876 48917 49001 49018 49037 49121 49127 49135 49140 (10 flits)
Class 0:
Remaining flits: 49750 49761 49766 49832 49836 49841 49843 49872 49879 49891 [...] (35 flits)
Measured flits: 49750 49761 49766 49832 49841 49843 49879 49912 (8 flits)
Class 0:
Remaining flits: 50503 50526 50539 50591 50596 50605 50608 50622 50627 50641 [...] (30 flits)
Measured flits: 50503 50526 50539 50596 50608 50622 50627 (7 flits)
Draining remaining packets ...
Time taken is 9609 cycles
Class 0:
Packet latency average = 30.937
	minimum = 7
	maximum = 187
Network latency average = 30.643
	minimum = 7
	maximum = 187
Slowest packet = 51269
Flit latency average = 30.643
	minimum = 7
	maximum = 187
Slowest flit = 51269
Fragmentation average = 0
	minimum = 0
	maximum = 0
Injected packet rate average = 0.051375
	minimum = 0.038 (at node 0)
	maximum = 0.068 (at node 7)
Accepted packet rate average = 0.047625
	minimum = 0.026 (at node 12)
	maximum = 0.066 (at node 13)
Injected flit rate average = 0.051375
	minimum = 0.038 (at node 0)
	maximum = 0.068 (at node 7)
Accepted flit rate average= 0.047625
	minimum = 0.026 (at node 12)
	maximum = 0.066 (at node 13)
Injected packet length average = 1
Accepted packet length average = 1
Total in-flight flits = 32 (0 measured)
latency change    = 1
throughput change = 1
Class 0:
Packet latency average = 36.5051
	minimum = 7
	maximum = 518
Network latency average = 33.1447
	minimum = 7
	maximum = 484
Slowest packet = 51383
Flit latency average = 33.1447
	minimum = 7
	maximum = 484
Slowest flit = 51383
Fragmentation average = 0
	minimum = 0
	maximum = 0
Injected packet rate average = 0.051375
	minimum = 0.033 (at node 3)
	maximum = 0.063 (at node 13)
Accepted packet rate average = 0.04925
	minimum = 0.025 (at node 12)
	maximum = 0.059 (at node 7)
Injected flit rate average = 0.051375
	minimum = 0.033 (at node 3)
	maximum = 0.063 (at node 13)
Accepted flit rate average= 0.04925
	minimum = 0.025 (at node 12)
	maximum = 0.059 (at node 7)
Injected packet length average = 1
Accepted packet length average = 1
Total in-flight flits = 36 (0 measured)
latency change    = 0.152529
throughput change = 0.0329949
Class 0:
Packet latency average = 56.873
	minimum = 7
	maximum = 873
Network latency average = 40.7011
	minimum = 7
	maximum = 455
Slowest packet = 51555
Flit latency average = 40.7011
	minimum = 7
	maximum = 455
Slowest flit = 51872
Fragmentation average = 0
	minimum = 0
	maximum = 0
Injected packet rate average = 0.046625
	minimum = 0.022 (at node 3)
	maximum = 0.062 (at node 8)
Accepted packet rate average = 0.04725
	minimum = 0.026 (at node 5)
	maximum = 0.066 (at node 7)
Injected flit rate average = 0.046625
	minimum = 0.022 (at node 3)
	maximum = 0.062 (at node 8)
Accepted flit rate average= 0.04725
	minimum = 0.026 (at node 5)
	maximum = 0.066 (at node 7)
Injected packet length average = 1
Accepted packet length average = 1
Total in-flight flits = 31 (0 measured)
latency change    = 0.35813
throughput change = 0.042328
Warmed up ...Time used is 1500 cycles
Class 0:
Packet latency average = 43.6966
	minimum = 7
	maximum = 1182
Network latency average = 28.3146
	minimum = 7
	maximum = 427
Slowest packet = 52288
Flit latency average = 37.4935
	minimum = 7
	maximum = 539
Slowest flit = 52051
Fragmentation average = 0
	minimum = 0
	maximum = 0
Injected packet rate average = 0.0485
	minimum = 0.026 (at node 3)
	maximum = 0.076 (at node 0)
Accepted packet rate average = 0.048375
	minimum = 0.024 (at node 12)
	maximum = 0.076 (at node 0)
Injected flit rate average = 0.0485
	minimum = 0.026 (at node 3)
	maximum = 0.076 (at node 0)
Accepted flit rate average= 0.048375
	minimum = 0.024 (at node 12)
	maximum = 0.076 (at node 0)
Injected packet length average = 1
Accepted packet length average = 1
Total in-flight flits = 31 (31 measured)
latency change    = 0.301542
throughput change = 0.0232558
Class 0:
Packet latency average = 55.0879
	minimum = 7
	maximum = 1437
Network latency average = 33.5672
	minimum = 7
	maximum = 489
Slowest packet = 52288
Flit latency average = 37.7776
	minimum = 7
	maximum = 539
Slowest flit = 52051
Fragmentation average = 0
	minimum = 0
	maximum = 0
Injected packet rate average = 0.05025
	minimum = 0.026 (at node 3)
	maximum = 0.065 (at node 0)
Accepted packet rate average = 0.0503125
	minimum = 0.022 (at node 12)
	maximum = 0.066 (at node 0)
Injected flit rate average = 0.05025
	minimum = 0.026 (at node 3)
	maximum = 0.065 (at node 0)
Accepted flit rate average= 0.0503125
	minimum = 0.022 (at node 12)
	maximum = 0.066 (at node 0)
Injected packet length average = 1
Accepted packet length average = 1
Total in-flight flits = 29 (29 measured)
latency change    = 0.206783
throughput change = 0.0385093
Class 0:
Packet latency average = 66.534
	minimum = 7
	maximum = 1732
Network latency average = 35.2451
	minimum = 7
	maximum = 580
Slowest packet = 52288
Flit latency average = 38.0402
	minimum = 7
	maximum = 580
Slowest flit = 52577
Fragmentation average = 0
	minimum = 0
	maximum = 0
Injected packet rate average = 0.0497917
	minimum = 0.0253333 (at node 3)
	maximum = 0.06 (at node 0)
Accepted packet rate average = 0.04975
	minimum = 0.024 (at node 12)
	maximum = 0.0606667 (at node 0)
Injected flit rate average = 0.0497917
	minimum = 0.0253333 (at node 3)
	maximum = 0.06 (at node 0)
Accepted flit rate average= 0.04975
	minimum = 0.024 (at node 12)
	maximum = 0.0606667 (at node 0)
Injected packet length average = 1
Accepted packet length average = 1
Total in-flight flits = 32 (32 measured)
latency change    = 0.172034
throughput change = 0.0113065
Class 0:
Packet latency average = 75.9243
	minimum = 7
	maximum = 1951
Network latency average = 36.2303
	minimum = 7
	maximum = 580
Slowest packet = 52288
Flit latency average = 38.3272
	minimum = 7
	maximum = 580
Slowest flit = 52577
Fragmentation average = 0
	minimum = 0
	maximum = 0
Injected packet rate average = 0.0492812
	minimum = 0.025 (at node 3)
	maximum = 0.057 (at node 1)
Accepted packet rate average = 0.0492812
	minimum = 0.025 (at node 12)
	maximum = 0.057 (at node 0)
Injected flit rate average = 0.0492812
	minimum = 0.025 (at node 3)
	maximum = 0.057 (at node 1)
Accepted flit rate average= 0.0492812
	minimum = 0.025 (at node 12)
	maximum = 0.057 (at node 0)
Injected packet length average = 1
Accepted packet length average = 1
Total in-flight flits = 31 (31 measured)
latency change    = 0.12368
throughput change = 0.00951173
Class 0:
Packet latency average = 81.43
	minimum = 7
	maximum = 2287
Network latency average = 36.4676
	minimum = 7
	maximum = 580
Slowest packet = 52288
Flit latency average = 38.1382
	minimum = 7
	maximum = 580
Slowest flit = 52577
Fragmentation average = 0
	minimum = 0
	maximum = 0
Injected packet rate average = 0.049275
	minimum = 0.0252 (at node 3)
	maximum = 0.058 (at node 0)
Accepted packet rate average = 0.049375
	minimum = 0.0244 (at node 12)
	maximum = 0.0584 (at node 0)
Injected flit rate average = 0.049275
	minimum = 0.0252 (at node 3)
	maximum = 0.058 (at node 0)
Accepted flit rate average= 0.049375
	minimum = 0.0244 (at node 12)
	maximum = 0.0584 (at node 0)
Injected packet length average = 1
Accepted packet length average = 1
Total in-flight flits = 27 (27 measured)
latency change    = 0.0676129
throughput change = 0.00189873
Class 0:
Packet latency average = 89.6399
	minimum = 7
	maximum = 2575
Network latency average = 36.6416
	minimum = 7
	maximum = 580
Slowest packet = 52288
Flit latency average = 38.0386
	minimum = 7
	maximum = 580
Slowest flit = 52577
Fragmentation average = 0
	minimum = 0
	maximum = 0
Injected packet rate average = 0.0490833
	minimum = 0.0256667 (at node 3)
	maximum = 0.057 (at node 5)
Accepted packet rate average = 0.049125
	minimum = 0.025 (at node 12)
	maximum = 0.0566667 (at node 5)
Injected flit rate average = 0.0490833
	minimum = 0.0256667 (at node 3)
	maximum = 0.057 (at node 5)
Accepted flit rate average= 0.049125
	minimum = 0.025 (at node 12)
	maximum = 0.0566667 (at node 5)
Injected packet length average = 1
Accepted packet length average = 1
Total in-flight flits = 29 (29 measured)
latency change    = 0.0915869
throughput change = 0.00508906
Class 0:
Packet latency average = 96.0471
	minimum = 7
	maximum = 2786
Network latency average = 36.8905
	minimum = 7
	maximum = 580
Slowest packet = 52288
Flit latency average = 38.0961
	minimum = 7
	maximum = 580
Slowest flit = 52577
Fragmentation average = 0
	minimum = 0
	maximum = 0
Injected packet rate average = 0.04875
	minimum = 0.0254286 (at node 3)
	maximum = 0.0565714 (at node 5)
Accepted packet rate average = 0.0486786
	minimum = 0.0248571 (at node 12)
	maximum = 0.0562857 (at node 0)
Injected flit rate average = 0.04875
	minimum = 0.0254286 (at node 3)
	maximum = 0.0565714 (at node 5)
Accepted flit rate average= 0.0486786
	minimum = 0.0248571 (at node 12)
	maximum = 0.0562857 (at node 0)
Injected packet length average = 1
Accepted packet length average = 1
Total in-flight flits = 35 (35 measured)
latency change    = 0.0667094
throughput change = 0.00917095
Draining all recorded packets ...
Class 0:
Remaining flits: 55456 55500 55527 55616 55624 55641 55644 55646 55678 55701 [...] (32 flits)
Measured flits: 55456 55500 55527 55616 55624 55641 55715 55723 55733 55743 (10 flits)
Class 0:
Remaining flits: 56301 56332 56337 56352 56366 56386 56411 56448 56456 56460 [...] (29 flits)
Measured flits: 56301 56332 56337 56352 56411 56448 56460 (7 flits)
Class 0:
Remaining flits: 57045 57081 57086 57154 57170 57186 57202 57207 57222 57229 [...] (36 flits)
Measured flits: 57045 57081 57086 57154 57170 57186 57202 57260 57283 57296 [...] (11 flits)
Class 0:
Remaining flits: 57874 57932 57940 57987 57993 57995 58000 58013 58022 58028 [...] (31 flits)
Measured flits: 57874 57932 57940 57995 58013 58022 58040 (7 flits)
Class 0:
Remaining flits: 58604 58627 58685 58693 58701 58708 58720 58725 58744 58778 [...] (26 flits)
Measured flits: 58604 58627 58685 58693 58720 58744 58790 58820 (8 flits)
Draining remaining packets ...
Time taken is 10692 cycles
Class 0:
Packet latency average = 24.7621
	minimum = 7
	maximum = 105
Network latency average = 24.7442
	minimum = 7
	maximum = 105
Slowest packet = 59335
Flit latency average = 24.7442
	minimum = 7
	maximum = 105
Slowest flit = 59335
Fragmentation average = 0
	minimum = 0
	maximum = 0
Injected packet rate average = 0.05375
	minimum = 0.032 (at node 2)
	maximum = 0.072 (at node 10)
Accepted packet rate average = 0.048875
	minimum = 0.018 (at node 8)
	maximum = 0.07 (at node 10)
Injected flit rate average = 0.05375
	minimum = 0.032 (at node 2)
	maximum = 0.072 (at node 10)
Accepted flit rate average= 0.048875
	minimum = 0.018 (at node 8)
	maximum = 0.07 (at node 10)
Injected packet length average = 1
Accepted packet length average = 1
Total in-flight flits = 40 (0 measured)
latency change    = 1
throughput change = 1
Class 0:
Packet latency average = 29.3014
	minimum = 7
	maximum = 311
Network latency average = 28.9489
	minimum = 7
	maximum = 311
Slowest packet = 59758
Flit latency average = 28.9489
	minimum = 7
	maximum = 311
Slowest flit = 59758
Fragmentation average = 0
	minimum = 0
	maximum = 0
Injected packet rate average = 0.0520625
	minimum = 0.039 (at node 2)
	maximum = 0.065 (at node 1)
Accepted packet rate average = 0.0501875
	minimum = 0.034 (at node 8)
	maximum = 0.064 (at node 6)
Injected flit rate average = 0.0520625
	minimum = 0.039 (at node 2)
	maximum = 0.065 (at node 1)
Accepted flit rate average= 0.0501875
	minimum = 0.034 (at node 8)
	maximum = 0.064 (at node 6)
Injected packet length average = 1
Accepted packet length average = 1
Total in-flight flits = 32 (0 measured)
latency change    = 0.154915
throughput change = 0.0261519
Class 0:
Packet latency average = 36.0767
	minimum = 7
	maximum = 453
Network latency average = 34.401
	minimum = 7
	maximum = 404
Slowest packet = 60016
Flit latency average = 34.401
	minimum = 7
	maximum = 404
Slowest flit = 60016
Fragmentation average = 0
	minimum = 0
	maximum = 0
Injected packet rate average = 0.05075
	minimum = 0.024 (at node 3)
	maximum = 0.074 (at node 6)
Accepted packet rate average = 0.0505
	minimum = 0.022 (at node 12)
	maximum = 0.072 (at node 9)
Injected flit rate average = 0.05075
	minimum = 0.024 (at node 3)
	maximum = 0.074 (at node 6)
Accepted flit rate average= 0.0505
	minimum = 0.022 (at node 12)
	maximum = 0.072 (at node 9)
Injected packet length average = 1
Accepted packet length average = 1
Total in-flight flits = 33 (0 measured)
latency change    = 0.187804
throughput change = 0.00618812
Warmed up ...Time used is 1500 cycles
Class 0:
Packet latency average = 33.0229
	minimum = 7
	maximum = 683
Network latency average = 27.8281
	minimum = 7
	maximum = 292
Slowest packet = 60562
Flit latency average = 39.9084
	minimum = 7
	maximum = 409
Slowest flit = 60441
Fragmentation average = 0
	minimum = 0
	maximum = 0
Injected packet rate average = 0.048125
	minimum = 0.02 (at node 3)
	maximum = 0.058 (at node 11)
Accepted packet rate average = 0.04775
	minimum = 0.024 (at node 12)
	maximum = 0.06 (at node 14)
Injected flit rate average = 0.048125
	minimum = 0.02 (at node 3)
	maximum = 0.058 (at node 11)
Accepted flit rate average= 0.04775
	minimum = 0.024 (at node 12)
	maximum = 0.06 (at node 14)
Injected packet length average = 1
Accepted packet length average = 1
Total in-flight flits = 37 (37 measured)
latency change    = 0.0924755
throughput change = 0.0575916
Class 0:
Packet latency average = 52.8111
	minimum = 7
	maximum = 1032
Network latency average = 33.9366
	minimum = 7
	maximum = 432
Slowest packet = 60562
Flit latency average = 39.6382
	minimum = 7
	maximum = 432
Slowest flit = 60723
Fragmentation average = 0
	minimum = 0
	maximum = 0
Injected packet rate average = 0.048
	minimum = 0.021 (at node 3)
	maximum = 0.058 (at node 11)
Accepted packet rate average = 0.048375
	minimum = 0.025 (at node 12)
	maximum = 0.059 (at node 14)
Injected flit rate average = 0.048
	minimum = 0.021 (at node 3)
	maximum = 0.058 (at node 11)
Accepted flit rate average= 0.048375
	minimum = 0.025 (at node 12)
	maximum = 0.059 (at node 14)
Injected packet length average = 1
Accepted packet length average = 1
Total in-flight flits = 28 (28 measured)
latency change    = 0.374697
throughput change = 0.0129199
Class 0:
Packet latency average = 60.0651
	minimum = 7
	maximum = 1312
Network latency average = 35.3782
	minimum = 7
	maximum = 436
Slowest packet = 60562
Flit latency average = 39.1612
	minimum = 7
	maximum = 436
Slowest flit = 60971
Fragmentation average = 0
	minimum = 0
	maximum = 0
Injected packet rate average = 0.04825
[...]
Draining remaining packets ...
Time taken is 9365 cycles
Class 0:
Packet latency average = 27.1989
	minimum = 7
	maximum = 161
Network latency average = 27.0436
	minimum = 7
	maximum = 159
Slowest packet = 343990
Flit latency average = 27.0436
	minimum = 7
	maximum = 159
Slowest flit = 343990
Fragmentation average = 0
	minimum = 0
	maximum = 0
Injected packet rate average = 0.049625
	minimum = 0.032 (at node 4)
	maximum = 0.064 (at node 13)
Accepted packet rate average = 0.045875
	minimum = 0.032 (at node 1)
	maximum = 0.06 (at node 6)
Injected flit rate average = 0.049625
	minimum = 0.032 (at node 4)
	maximum = 0.064 (at node 13)
Accepted flit rate average= 0.045875
	minimum = 0.032 (at node 1)
	maximum = 0.06 (at node 6)
Injected packet length average = 1
Accepted packet length average = 1
Total in-flight flits = 31 (0 measured)
latency change    = 1
throughput change = 1
Class 0:
Packet latency average = 34.9671
	minimum = 7
	maximum = 432
Network latency average = 33.1263
	minimum = 7
	maximum = 432
Slowest packet = 344063
Flit latency average = 33.1263
	minimum = 7
	maximum = 432
Slowest flit = 344063
Fragmentation average = 0
	minimum = 0
	maximum = 0
Injected packet rate average = 0.0495625
	minimum = 0.032 (at node 11)
	maximum = 0.061 (at node 13)
Accepted packet rate average = 0.0475
	minimum = 0.029 (at node 12)
	maximum = 0.058 (at node 2)
Injected flit rate average = 0.0495625
	minimum = 0.032 (at node 11)
	maximum = 0.061 (at node 13)
Accepted flit rate average= 0.0475
	minimum = 0.029 (at node 12)
	maximum = 0.058 (at node 2)
Injected packet length average = 1
Accepted packet length average = 1
Total in-flight flits = 35 (0 measured)
latency change    = 0.222157
throughput change = 0.0342105
Class 0:
Packet latency average = 49.5302
	minimum = 7
	maximum = 787
Network latency average = 37.6834
	minimum = 7
	maximum = 599
Slowest packet = 344142
Flit latency average = 37.6834
	minimum = 7
	maximum = 599
Slowest flit = 344414
Fragmentation average = 0
	minimum = 0
	maximum = 0
Injected packet rate average = 0.050625
	minimum = 0.022 (at node 3)
	maximum = 0.066 (at node 5)
Accepted packet rate average = 0.04975
	minimum = 0.024 (at node 12)
	maximum = 0.066 (at node 5)
Injected flit rate average = 0.050625
	minimum = 0.022 (at node 3)
	maximum = 0.066 (at node 5)
Accepted flit rate average= 0.04975
	minimum = 0.024 (at node 12)
	maximum = 0.066 (at node 5)
Injected packet length average = 1
Accepted packet length average = 1
Total in-flight flits = 41 (0 measured)
latency change    = 0.294024
throughput change = 0.0452261
Warmed up ...Time used is 1500 cycles
Class 0:
Packet latency average = 43.5574
	minimum = 7
	maximum = 1067
Network latency average = 29.6148
	minimum = 7
	maximum = 357
Slowest packet = 344949
Flit latency average = 39.4496
	minimum = 7
	maximum = 542
Slowest flit = 344508
Fragmentation average = 0
	minimum = 0
	maximum = 0
Injected packet rate average = 0.049625
	minimum = 0.034 (at node 3)
	maximum = 0.064 (at node 6)
Accepted packet rate average = 0.050875
	minimum = 0.032 (at node 12)
	maximum = 0.068 (at node 9)
Injected flit rate average = 0.049625
	minimum = 0.034 (at node 3)
	maximum = 0.064 (at node 6)
Accepted flit rate average= 0.050875
	minimum = 0.032 (at node 12)
	maximum = 0.068 (at node 9)
Injected packet length average = 1
Accepted packet length average = 1
Total in-flight flits = 31 (31 measured)
latency change    = 0.137124
throughput change = 0.022113
Class 0:
Packet latency average = 58.8307
	minimum = 7
	maximum = 1199
Network latency average = 32.5827
	minimum = 7
	maximum = 400
Slowest packet = 344949
Flit latency average = 37.3448
	minimum = 7
	maximum = 542
Slowest flit = 344508
Fragmentation average = 0
	minimum = 0
	maximum = 0
Injected packet rate average = 0.0503125
	minimum = 0.033 (at node 3)
	maximum = 0.059 (at node 5)
Accepted packet rate average = 0.0509375
	minimum = 0.034 (at node 12)
	maximum = 0.059 (at node 5)
Injected flit rate average = 0.0503125
	minimum = 0.033 (at node 3)
	maximum = 0.059 (at node 5)
Accepted flit rate average= 0.0509375
	minimum = 0.034 (at node 12)
	maximum = 0.059 (at node 5)
Injected packet length average = 1
Accepted packet length average = 1
Total in-flight flits = 31 (31 measured)
latency change    = 0.259615
throughput change = 0.00122699
Class 0:
Packet latency average = 63.6765
	minimum = 7
	maximum = 1446
Network latency average = 34.032
	minimum = 7
	maximum = 440
Slowest packet = 344949
Flit latency average = 37.2247
	minimum = 7
	maximum = 542
Slowest flit = 344508
Fragmentation average = 0
	minimum = 0
	maximum = 0
Injected packet rate average = 0.0492917
	minimum = 0.0326667 (at node 3)
	maximum = 0.0566667 (at node 12)
Accepted packet rate average = 0.049875
	minimum = 0.032 (at node 12)
	maximum = 0.056 (at node 7)
Injected flit rate average = 0.0492917
	minimum = 0.0326667 (at node 3)
	maximum = 0.0566667 (at node 12)
Accepted flit rate average= 0.049875
	minimum = 0.032 (at node 12)
	maximum = 0.056 (at node 7)
Injected packet length average = 1
Accepted packet length average = 1
Total in-flight flits = 27 (27 measured)
latency change    = 0.0760991
throughput change = 0.0213033
Class 0:
Packet latency average = 70.6721
	minimum = 7
	maximum = 1545
Network latency average = 35.2135
	minimum = 7
	maximum = 440
Slowest packet = 344949
Flit latency average = 37.6276
	minimum = 7
	maximum = 542
Slowest flit = 344508
Fragmentation average = 0
	minimum = 0
	maximum = 0
Injected packet rate average = 0.0484687
	minimum = 0.0315 (at node 3)
	maximum = 0.0555 (at node 13)
Accepted packet rate average = 0.0488437
	minimum = 0.0325 (at node 12)
	maximum = 0.0545 (at node 15)
Injected flit rate average = 0.0484687
	minimum = 0.0315 (at node 3)
	maximum = 0.0555 (at node 13)
Accepted flit rate average= 0.0488437
	minimum = 0.0325 (at node 12)
	maximum = 0.0545 (at node 15)
Injected packet length average = 1
Accepted packet length average = 1
Total in-flight flits = 29 (29 measured)
latency change    = 0.0989877
throughput change = 0.0211132
Class 0:
Packet latency average = 75.2024
	minimum = 7
	maximum = 1730
Network latency average = 35.375
	minimum = 7
	maximum = 440
Slowest packet = 344949
Flit latency average = 37.3036
	minimum = 7
	maximum = 542
Slowest flit = 344508
Fragmentation average = 0
	minimum = 0
	maximum = 0
Injected packet rate average = 0.048525
	minimum = 0.0316 (at node 3)
	maximum = 0.0552 (at node 15)
Accepted packet rate average = 0.048825
	minimum = 0.0324 (at node 12)
	maximum = 0.0552 (at node 15)
Injected flit rate average = 0.048525
	minimum = 0.0316 (at node 3)
	maximum = 0.0552 (at node 15)
Accepted flit rate average= 0.048825
	minimum = 0.0324 (at node 12)
	maximum = 0.0552 (at node 15)
Injected packet length average = 1
Accepted packet length average = 1
Total in-flight flits = 29 (29 measured)
latency change    = 0.0602409
throughput change = 0.000384025
Class 0:
Packet latency average = 78.0476
	minimum = 7
	maximum = 2030
Network latency average = 36.1764
	minimum = 7
	maximum = 440
Slowest packet = 344949
Flit latency average = 37.7782
	minimum = 7
	maximum = 542
Slowest flit = 344508
Fragmentation average = 0
	minimum = 0
	maximum = 0
Injected packet rate average = 0.04825
	minimum = 0.031 (at node 3)
	maximum = 0.0546667 (at node 12)
Accepted packet rate average = 0.0485625
	minimum = 0.031 (at node 12)
	maximum = 0.0546667 (at node 3)
Injected flit rate average = 0.04825
	minimum = 0.031 (at node 3)
	maximum = 0.0546667 (at node 12)
Accepted flit rate average= 0.0485625
	minimum = 0.031 (at node 12)
	maximum = 0.0546667 (at node 3)
Injected packet length average = 1
Accepted packet length average = 1
Total in-flight flits = 26 (26 measured)
latency change    = 0.0364546
throughput change = 0.00540541
Class 0:
Packet latency average = 82.7324
	minimum = 7
	maximum = 2267
Network latency average = 36.3898
	minimum = 7
	maximum = 440
Slowest packet = 344949
Flit latency average = 37.7533
	minimum = 7
	maximum = 542
Slowest flit = 344508
Fragmentation average = 0
	minimum = 0
	maximum = 0
Injected packet rate average = 0.0485536
	minimum = 0.0308571 (at node 3)
	maximum = 0.0548571 (at node 4)
Accepted packet rate average = 0.0487857
	minimum = 0.0308571 (at node 12)
	maximum = 0.0551429 (at node 1)
Injected flit rate average = 0.0485536
	minimum = 0.0308571 (at node 3)
	maximum = 0.0548571 (at node 4)
Accepted flit rate average= 0.0487857
	minimum = 0.0308571 (at node 12)
	maximum = 0.0551429 (at node 1)
Injected packet length average = 1
Accepted packet length average = 1
Total in-flight flits = 28 (28 measured)
latency change    = 0.0566264
throughput change = 0.0045754
Draining all recorded packets ...
Class 0:
Remaining flits: 348200 348216 348222 348242 348277 348293 348303 348321 348325 348345 [...] (40 flits)
Measured flits: 348200 348216 348222 348277 348303 348321 348345 348395 348404 (9 flits)
Class 0:
Remaining flits: 348909 348922 348985 349003 349005 349089 349094 349098 349117 349153 [...] (34 flits)
Measured flits: 348909 348922 348985 349003 349005 349089 349098 349208 349209 349214 (10 flits)
Class 0:
Remaining flits: 349750 349766 349792 349861 349873 349940 349948 349949 349957 349959 [...] (33 flits)
Measured flits: 349750 349766 349792 349861 349873 349949 349959 350003 350037 350053 (10 flits)
Class 0:
Remaining flits: 350561 350613 350675 350687 350699 350714 350720 350734 350741 350753 [...] (34 flits)
Measured flits: 350561 350613 350675 350687 350714 350734 (6 flits)
Draining remaining packets ...
Time taken is 9439 cycles
Class 0:
Packet latency average = 27.5415
	minimum = 7
	maximum = 163
Network latency average = 27.5358
	minimum = 7
	maximum = 163
Slowest packet = 351296
Flit latency average = 27.5358
	minimum = 7
	maximum = 163
Slowest flit = 351296
Fragmentation average = 0
	minimum = 0
	maximum = 0
Injected packet rate average = 0.04625
	minimum = 0.034 (at node 9)
	maximum = 0.058 (at node 4)
Accepted packet rate average = 0.043625
	minimum = 0.028 (at node 12)
	maximum = 0.058 (at node 1)
Injected flit rate average = 0.04625
	minimum = 0.034 (at node 9)
	maximum = 0.058 (at node 4)
Accepted flit rate average= 0.043625
	minimum = 0.028 (at node 12)
	maximum = 0.058 (at node 1)
Injected packet length average = 1
Accepted packet length average = 1
Total in-flight flits = 22 (0 measured)
latency change    = 1
throughput change = 1
Class 0:
Packet latency average = 33.464
	minimum = 7
	maximum = 468
Network latency average = 32.2017
	minimum = 7
	maximum = 378
Slowest packet = 351421
Flit latency average = 32.2017
	minimum = 7
	maximum = 378
Slowest flit = 351473
Fragmentation average = 0
	minimum = 0
	maximum = 0
Injected packet rate average = 0.0459375
	minimum = 0.038 (at node 0)
	maximum = 0.054 (at node 2)
Accepted packet rate average = 0.0443125
	minimum = 0.032 (at node 12)
	maximum = 0.053 (at node 7)
Injected flit rate average = 0.0459375
	minimum = 0.038 (at node 0)
	maximum = 0.054 (at node 2)
Accepted flit rate average= 0.0443125
	minimum = 0.032 (at node 12)
	maximum = 0.053 (at node 7)
Injected packet length average = 1
Accepted packet length average = 1
Total in-flight flits = 27 (0 measured)
latency change    = 0.176981
throughput change = 0.0155148
Class 0:
Packet latency average = 46.9203
	minimum = 7
	maximum = 692
Network latency average = 38.1157
	minimum = 7
	maximum = 450
Slowest packet = 351643
Flit latency average = 38.1157
	minimum = 7
	maximum = 450
Slowest flit = 351795
Fragmentation average = 0
	minimum = 0
	maximum = 0
Injected packet rate average = 0.048625
	minimum = 0.026 (at node 3)
	maximum = 0.068 (at node 4)
Accepted packet rate average = 0.048625
	minimum = 0.026 (at node 12)
	maximum = 0.068 (at node 1)
Injected flit rate average = 0.048625
	minimum = 0.026 (at node 3)
	maximum = 0.068 (at node 4)
Accepted flit rate average= 0.048625
	minimum = 0.026 (at node 12)
	maximum = 0.068 (at node 1)
Injected packet length average = 1
Accepted packet length average = 1
Total in-flight flits = 27 (0 measured)
latency change    = 0.28679
throughput change = 0.0886889
Warmed up ...Time used is 1500 cycles
Class 0:
Packet latency average = 40.4926
	minimum = 7
	maximum = 803
Network latency average = 28.6962
	minimum = 7
	maximum = 356
Slowest packet = 352188
Flit latency average = 36.3607
	minimum = 7
	maximum = 396
Slowest flit = 351858
Fragmentation average = 0
	minimum = 0
	maximum = 0
Injected packet rate average = 0.0465
	minimum = 0.036 (at node 3)
	maximum = 0.058 (at node 15)
Accepted packet rate average = 0.04575
	minimum = 0.032 (at node 12)
	maximum = 0.056 (at node 15)
Injected flit rate average = 0.0465
	minimum = 0.036 (at node 3)
	maximum = 0.058 (at node 15)
Accepted flit rate average= 0.04575
	minimum = 0.032 (at node 12)
	maximum = 0.056 (at node 15)
Injected packet length average = 1
Accepted packet length average = 1
Total in-flight flits = 34 (34 measured)
latency change    = 0.158737
throughput change = 0.0628415
Class 0:
Packet latency average = 52.1908
	minimum = 7
	maximum = 918
Network latency average = 34.4526
	minimum = 7
	maximum = 377
Slowest packet = 352188
Flit latency average = 38.0094
	minimum = 7
	maximum = 396
Slowest flit = 351858
Fragmentation average = 0
	minimum = 0
	maximum = 0
Injected packet rate average = 0.0465
	minimum = 0.029 (at node 3)
	maximum = 0.059 (at node 0)
Accepted packet rate average = 0.0465625
	minimum = 0.029 (at node 12)
	maximum = 0.06 (at node 0)
Injected flit rate average = 0.0465
	minimum = 0.029 (at node 3)
	maximum = 0.059 (at node 0)
Accepted flit rate average= 0.0465625
	minimum = 0.029 (at node 12)
	maximum = 0.06 (at node 0)
Injected packet length average = 1
Accepted packet length average = 1
Total in-flight flits = 27 (27 measured)
latency change    = 0.224143
throughput change = 0.0174497
Class 0:
Packet latency average = 57.4193
	minimum = 7
	maximum = 1183
Network latency average = 35.1933
	minimum = 7
	maximum = 461
Slowest packet = 352188
Flit latency average = 37.5329
	minimum = 7
	maximum = 461
Slowest flit = 352739
Fragmentation average = 0
	minimum = 0
	maximum = 0
Injected packet rate average = 0.0474167
	minimum = 0.0293333 (at node 3)
	maximum = 0.056 (at node 0)
Accepted packet rate average = 0.0468333
	minimum = 0.028 (at node 12)
	maximum = 0.056 (at node 0)
Injected flit rate average = 0.0474167
	minimum = 0.0293333 (at node 3)
	maximum = 0.056 (at node 0)
Accepted flit rate average= 0.0468333
	minimum = 0.028 (at node 12)
	maximum = 0.056 (at node 0)
Injected packet length average = 1
Accepted packet length average = 1
Total in-flight flits = 41 (41 measured)
latency change    = 0.0910585
throughput change = 0.00578292
Class 0:
Packet latency average = 61.9143
	minimum = 7
	maximum = 1369
Network latency average = 36.168
	minimum = 7
	maximum = 461
Slowest packet = 352188
Flit latency average = 37.8933
	minimum = 7
	maximum = 461
Slowest flit = 352739
Fragmentation average = 0
	minimum = 0
	maximum = 0
Injected packet rate average = 0.0473125
	minimum = 0.028 (at node 3)
	maximum = 0.053 (at node 9)
Accepted packet rate average = 0.0471562
	minimum = 0.0285 (at node 12)
	maximum = 0.053 (at node 6)
Injected flit rate average = 0.0473125
	minimum = 0.028 (at node 3)
	maximum = 0.053 (at node 9)
Accepted flit rate average= 0.0471562
	minimum = 0.0285 (at node 12)
	maximum = 0.053 (at node 6)
Injected packet length average = 1
Accepted packet length average = 1
Total in-flight flits = 33 (33 measured)
latency change    = 0.0726
throughput change = 0.0068478
Class 0:
Packet latency average = 63.9572
	minimum = 7
	maximum = 1418
Network latency average = 36.1485
	minimum = 7
	maximum = 461
Slowest packet = 352188
Flit latency average = 37.5055
	minimum = 7
	maximum = 461
Slowest flit = 352739
Fragmentation average = 0
	minimum = 0
	maximum = 0
Injected packet rate average = 0.0482
	minimum = 0.0276 (at node 3)
	maximum = 0.0532 (at node 15)
Accepted packet rate average = 0.047975
	minimum = 0.0276 (at node 12)
	maximum = 0.0532 (at node 11)
Injected flit rate average = 0.0482
	minimum = 0.0276 (at node 3)
	maximum = 0.0532 (at node 15)
Accepted flit rate average= 0.047975
	minimum = 0.0276 (at node 12)
	maximum = 0.0532 (at node 11)
Injected packet length average = 1
Accepted packet length average = 1
Total in-flight flits = 36 (36 measured)
latency change    = 0.0319414
throughput change = 0.0170662
Class 0:
Packet latency average = 66.8626
	minimum = 7
	maximum = 1541
Network latency average = 36.5755
	minimum = 7
	maximum = 503
Slowest packet = 352188
Flit latency average = 37.6934
	minimum = 7
	maximum = 503
Slowest flit = 353819
Fragmentation average = 0
	minimum = 0
	maximum = 0
Injected packet rate average = 0.0483125
	minimum = 0.0273333 (at node 3)
	maximum = 0.0553333 (at node 15)
Accepted packet rate average = 0.0483125
	minimum = 0.027 (at node 12)
	maximum = 0.0546667 (at node 15)
Injected flit rate average = 0.0483125
	minimum = 0.0273333 (at node 3)
	maximum = 0.0553333 (at node 15)
Accepted flit rate average= 0.0483125
	minimum = 0.027 (at node 12)
	maximum = 0.0546667 (at node 15)
Injected packet length average = 1
Accepted packet length average = 1
Total in-flight flits = 28 (28 measured)
latency change    = 0.043453
throughput change = 0.00698577
Class 0:
Packet latency average = 71.6534
	minimum = 7
	maximum = 1861
Network latency average = 36.9244
	minimum = 7
	maximum = 503
Slowest packet = 352188
Flit latency average = 37.8814
	minimum = 7
	maximum = 503
Slowest flit = 353819
Fragmentation average = 0
	minimum = 0
	maximum = 0
Injected packet rate average = 0.0482679
	minimum = 0.0271429 (at node 3)
	maximum = 0.0548571 (at node 15)
Accepted packet rate average = 0.0481964
	minimum = 0.0268571 (at node 12)
	maximum = 0.0545714 (at node 15)
Injected flit rate average = 0.0482679
	minimum = 0.0271429 (at node 3)
	maximum = 0.0548571 (at node 15)
Accepted flit rate average= 0.0481964
	minimum = 0.0268571 (at node 12)
	maximum = 0.0545714 (at node 15)
Injected packet length average = 1
Accepted packet length average = 1
Total in-flight flits = 32 (32 measured)
latency change    = 0.0668618
throughput change = 0.0024083
Draining all recorded packets ...
Class 0:
Remaining flits: 355369 355406 355473 355513 355519 355542 355551 355559 355564 355569 [...] (29 flits)
Measured flits: 355369 355406 355473 355513 355519 355564 355573 355580 355607 (9 flits)
Class 0:
Remaining flits: 356072 356136 356167 356251 356264 356316 356349 356354 356387 356390 [...] (39 flits)
Measured flits: 356072 356136 356167 356264 356387 356396 356405 (7 flits)
Class 0:
Remaining flits: 357004 357030 357031 357048 357092 357121 357132 357137 357140 357146 [...] (29 flits)
Measured flits: 357004 357030 357031 357048 357137 357140 357166 (7 flits)
Draining remaining packets ...
Time taken is 9074 cycles
====== Overall Traffic Statistics ======
====== Traffic class 0 ======
Packet latency average = 208.853 (50 samples)
	minimum = 7 (50 samples)
	maximum = 4245.1 (50 samples)
Network latency average = 47.9796 (50 samples)
	minimum = 7 (50 samples)
	maximum = 516.7 (50 samples)
Flit latency average = 39.0882 (50 samples)
	minimum = 7 (50 samples)
	maximum = 521.46 (50 samples)
Fragmentation average = 0 (50 samples)
	minimum = 0 (50 samples)
	maximum = 0 (50 samples)
Injected packet rate average = 0.0486504 (50 samples)
	minimum = 0.0269781 (50 samples)
	maximum = 0.0564933 (50 samples)
Accepted packet rate average = 0.0486454 (50 samples)
	minimum = 0.0270581 (50 samples)
	maximum = 0.0564829 (50 samples)
Injected flit rate average = 0.0486504 (50 samples)
	minimum = 0.0269781 (50 samples)
	maximum = 0.0564933 (50 samples)
Accepted flit rate average = 0.0486454 (50 samples)
	minimum = 0.0270581 (50 samples)
	maximum = 0.0564829 (50 samples)
Injected packet size average = 1 (50 samples)
Accepted packet size average = 1 (50 samples)
Hops average = 3.79055 (50 samples)
Total run time 6.00888
