BEGIN Configuration File: /tmp/tmpx4t_1l0t.cfg
topology = mesh;
k = 4;
n = 2;
routing_function = planar_adapt;
num_vcs = 4;
vc_buf_size = 4;
wait_for_tail_credit = 1;
vc_allocator = islip;
sw_allocator = islip;
alloc_iters = 1;
credit_delay = 2;
routing_delay = 1;
vc_alloc_delay = 1;
sw_alloc_delay = 1;
input_speedup = 2;
output_speedup = 1;
internal_speedup = 1.0;
traffic = hotspot;
packet_size = 1;
sim_type = latency;
injection_rate = 0.01;
warmup_periods = 3;
sample_period = 500;
sim_count = 50;
seed = 1;
link_failures = 4;
fail_seed = 101;

END Configuration File: /tmp/tmpx4t_1l0t.cfg
failure at node 14, channel 0 (1/4)
failure at node 12, channel 0 (2/4)
failure at node 4, channel 2 (3/4)
failure at node 11, channel 1 (4/4)
Class 0:
Packet latency average = 35.5185
	minimum = 7
	maximum = 91
Network latency average = 35.5185
	minimum = 7
	maximum = 91
Slowest packet = 60
Flit latency average = 35.5185
	minimum = 7
	maximum = 91
Slowest flit = 60
Fragmentation average = 0
	minimum = 0
	maximum = 0
Injected packet rate average = 0.011125
	minimum = 0.006 (at node 1)
	maximum = 0.022 (at node 7)
Accepted packet rate average = 0.010125
	minimum = 0 (at node 0)
	maximum = 0.162 (at node 12)
Injected flit rate average = 0.011125
	minimum = 0.006 (at node 1)
	maximum = 0.022 (at node 7)
Accepted flit rate average= 0.010125
	minimum = 0 (at node 0)
	maximum = 0.162 (at node 12)
Injected packet length average = 1
Accepted packet length average = 1
Total in-flight flits = 8 (0 measured)
latency change    = 1
throughput change = 1
Class 0:
Packet latency average = 40.0122
	minimum = 7
	maximum = 128
Network latency average = 40.0122
	minimum = 7
	maximum = 128
Slowest packet = 119
Flit latency average = 40.0122
	minimum = 7
	maximum = 128
Slowest flit = 119
Fragmentation average = 0
	minimum = 0
	maximum = 0
Injected packet rate average = 0.0108125
	minimum = 0.006 (at node 2)
	maximum = 0.019 (at node 7)
Accepted packet rate average = 0.01025
	minimum = 0 (at node 0)
	maximum = 0.164 (at node 12)
Injected flit rate average = 0.0108125
	minimum = 0.006 (at node 2)
	maximum = 0.019 (at node 7)
Accepted flit rate average= 0.01025
	minimum = 0 (at node 0)
	maximum = 0.164 (at node 12)
Injected packet length average = 1
Accepted packet length average = 1
Total in-flight flits = 9 (0 measured)
latency change    = 0.112308
throughput change = 0.0121951
Class 0:
Packet latency average = 28.6933
	minimum = 7
	maximum = 102
Network latency average = 28.6933
	minimum = 7
	maximum = 102
Slowest packet = 169
Flit latency average = 28.6933
	minimum = 7
	maximum = 102
Slowest flit = 169
Fragmentation average = 0
	minimum = 0
	maximum = 0
Injected packet rate average = 0.009
	minimum = 0.002 (at node 6)
	maximum = 0.026 (at node 12)
Accepted packet rate average = 0.009375
	minimum = 0 (at node 0)
	maximum = 0.15 (at node 12)
Injected flit rate average = 0.009
	minimum = 0.002 (at node 6)
	maximum = 0.026 (at node 12)
Accepted flit rate average= 0.009375
	minimum = 0 (at node 0)
	maximum = 0.15 (at node 12)
Injected packet length average = 1
Accepted packet length average = 1
Total in-flight flits = 6 (0 measured)
latency change    = 0.394477
throughput change = 0.0933333
Warmed up ...Time used is 1500 cycles
Class 0:
Packet latency average = 42.0515
	minimum = 7
	maximum = 138
Network latency average = 42.0515
	minimum = 7
	maximum = 138
Slowest packet = 320
Flit latency average = 41.6699
	minimum = 7
	maximum = 138
Slowest flit = 320
Fragmentation average = 0
	minimum = 0
	maximum = 0
Injected packet rate average = 0.0135
	minimum = 0.006 (at node 2)
	maximum = 0.026 (at node 8)
Accepted packet rate average = 0.012875
	minimum = 0 (at node 0)
	maximum = 0.206 (at node 12)
Injected flit rate average = 0.0135
	minimum = 0.006 (at node 2)
	maximum = 0.026 (at node 8)
Accepted flit rate average= 0.012875
	minimum = 0 (at node 0)
	maximum = 0.206 (at node 12)
Injected packet length average = 1
Accepted packet length average = 1
Total in-flight flits = 11 (11 measured)
latency change    = 0.317663
throughput change = 0.271845
Class 0:
Packet latency average = 41.5989
	minimum = 7
	maximum = 156
Network latency average = 41.5989
	minimum = 7
	maximum = 156
Slowest packet = 352
Flit latency average = 41.4093
	minimum = 7
	maximum = 156
Slowest flit = 352
Fragmentation average = 0
	minimum = 0
	maximum = 0
Injected packet rate average = 0.0119375
	minimum = 0.007 (at node 0)
	maximum = 0.019 (at node 8)
Accepted packet rate average = 0.0120625
	minimum = 0 (at node 0)
	maximum = 0.193 (at node 12)
Injected flit rate average = 0.0119375
	minimum = 0.007 (at node 0)
	maximum = 0.019 (at node 8)
Accepted flit rate average= 0.0120625
	minimum = 0 (at node 0)
	maximum = 0.193 (at node 12)
Injected packet length average = 1
Accepted packet length average = 1
Total in-flight flits = 4 (4 measured)
latency change    = 0.0108805
throughput change = 0.0673575
Class 0:
Packet latency average = 37.8577
	minimum = 7
	maximum = 156
Network latency average = 37.8577
	minimum = 7
	maximum = 156
Slowest packet = 352
Flit latency average = 37.8059
	minimum = 7
	maximum = 156
Slowest flit = 352
Fragmentation average = 0
	minimum = 0
	maximum = 0
Injected packet rate average = 0.0112083
	minimum = 0.006 (at node 0)
	maximum = 0.0153333 (at node 8)
Accepted packet rate average = 0.011375
	minimum = 0 (at node 0)
	maximum = 0.182 (at node 12)
Injected flit rate average = 0.0112083
	minimum = 0.006 (at node 0)
	maximum = 0.0153333 (at node 8)
Accepted flit rate average= 0.011375
	minimum = 0 (at node 0)
	maximum = 0.182 (at node 12)
Injected packet length average = 1
Accepted packet length average = 1
Total in-flight flits = 2 (2 measured)
latency change    = 0.0988241
throughput change = 0.0604396
Class 0:
Packet latency average = 37.4643
	minimum = 7
	maximum = 156
Network latency average = 37.4643
	minimum = 7
	maximum = 156
Slowest packet = 352
Flit latency average = 37.4298
	minimum = 7
	maximum = 156
Slowest flit = 352
Fragmentation average = 0
	minimum = 0
	maximum = 0
Injected packet rate average = 0.0106875
	minimum = 0.0055 (at node 0)
	maximum = 0.0135 (at node 8)
Accepted packet rate average = 0.0106875
	minimum = 0 (at node 0)
	maximum = 0.171 (at node 12)
Injected flit rate average = 0.0106875
	minimum = 0.0055 (at node 0)
	maximum = 0.0135 (at node 8)
Accepted flit rate average= 0.0106875
	minimum = 0 (at node 0)
	maximum = 0.171 (at node 12)
Injected packet length average = 1
Accepted packet length average = 1
Total in-flight flits = 6 (6 measured)
latency change    = 0.0105005
throughput change = 0.0643275
Class 0:
Packet latency average = 36.3012
	minimum = 7
	maximum = 156
Network latency average = 36.3012
	minimum = 7
	maximum = 156
Slowest packet = 352
Flit latency average = 36.2898
	minimum = 7
	maximum = 156
Slowest flit = 352
Fragmentation average = 0
	minimum = 0
	maximum = 0
Injected packet rate average = 0.010475
	minimum = 0.006 (at node 0)
	maximum = 0.0132 (at node 6)
Accepted packet rate average = 0.010525
	minimum = 0 (at node 0)
	maximum = 0.1684 (at node 12)
Injected flit rate average = 0.010475
	minimum = 0.006 (at node 0)
	maximum = 0.0132 (at node 6)
Accepted flit rate average= 0.010525
	minimum = 0 (at node 0)
	maximum = 0.1684 (at node 12)
Injected packet length average = 1
Accepted packet length average = 1
Total in-flight flits = 4 (4 measured)
latency change    = 0.0320397
throughput change = 0.0154394
Class 0:
Packet latency average = 36.8768
	minimum = 7
	maximum = 156
Network latency average = 36.8768
	minimum = 7
	maximum = 156
Slowest packet = 352
Flit latency average = 36.8603
	minimum = 7
	maximum = 156
Slowest flit = 352
Fragmentation average = 0
	minimum = 0
	maximum = 0
Injected packet rate average = 0.0105208
	minimum = 0.00733333 (at node 0)
	maximum = 0.0133333 (at node 14)
Accepted packet rate average = 0.0104375
	minimum = 0 (at node 0)
	maximum = 0.167 (at node 12)
Injected flit rate average = 0.0105208
	minimum = 0.00733333 (at node 0)
	maximum = 0.0133333 (at node 14)
Accepted flit rate average= 0.0104375
	minimum = 0 (at node 0)
	maximum = 0.167 (at node 12)
Injected packet length average = 1
Accepted packet length average = 1
Total in-flight flits = 10 (10 measured)
latency change    = 0.0156077
throughput change = 0.00838323
Class 0:
Packet latency average = 37.4819
	minimum = 7
	maximum = 156
Network latency average = 37.4819
	minimum = 7
	maximum = 156
Slowest packet = 352
Flit latency average = 37.4617
	minimum = 7
	maximum = 156
Slowest flit = 352
Fragmentation average = 0
	minimum = 0
	maximum = 0
Injected packet rate average = 0.0105
	minimum = 0.00742857 (at node 10)
	maximum = 0.0131429 (at node 1)
Accepted packet rate average = 0.0104821
	minimum = 0 (at node 0)
	maximum = 0.167714 (at node 12)
Injected flit rate average = 0.0105
	minimum = 0.00742857 (at node 10)
	maximum = 0.0131429 (at node 1)
Accepted flit rate average= 0.0104821
	minimum = 0 (at node 0)
	maximum = 0.167714 (at node 12)
Injected packet length average = 1
Accepted packet length average = 1
Total in-flight flits = 7 (7 measured)
latency change    = 0.0161454
throughput change = 0.00425894
Draining all recorded packets ...
Draining remaining packets ...
Time taken is 5132 cycles
Class 0:
Packet latency average = 29.4355
	minimum = 7
	maximum = 94
Network latency average = 29.4355
	minimum = 7
	maximum = 94
Slowest packet = 892
Flit latency average = 29.4355
	minimum = 7
	maximum = 94
Slowest flit = 892
Fragmentation average = 0
	minimum = 0
	maximum = 0
Injected packet rate average = 0.008625
	minimum = 0.004 (at node 1)
	maximum = 0.018 (at node 10)
Accepted packet rate average = 0.00775
	minimum = 0 (at node 0)
	maximum = 0.124 (at node 12)
Injected flit rate average = 0.008625
	minimum = 0.004 (at node 1)
	maximum = 0.018 (at node 10)
Accepted flit rate average= 0.00775
	minimum = 0 (at node 0)
	maximum = 0.124 (at node 12)
Injected packet length average = 1
Accepted packet length average = 1
Total in-flight flits = 7 (0 measured)
latency change    = 1
throughput change = 1
Class 0:
Packet latency average = 31.7381
	minimum = 7
	maximum = 94
Network latency average = 31.7381
	minimum = 7
	maximum = 94
Slowest packet = 892
Flit latency average = 31.7381
	minimum = 7
	maximum = 94
Slowest flit = 892
Fragmentation average = 0
	minimum = 0
	maximum = 0
Injected packet rate average = 0.0085625
	minimum = 0.004 (at node 13)
	maximum = 0.013 (at node 0)
Accepted packet rate average = 0.007875
	minimum = 0 (at node 0)
	maximum = 0.126 (at node 12)
Injected flit rate average = 0.0085625
	minimum = 0.004 (at node 13)
	maximum = 0.013 (at node 0)
Accepted flit rate average= 0.007875
	minimum = 0 (at node 0)
	maximum = 0.126 (at node 12)
Injected packet length average = 1
Accepted packet length average = 1
Total in-flight flits = 11 (0 measured)
latency change    = 0.0725504
throughput change = 0.015873
Class 0:
Packet latency average = 35.9625
	minimum = 7
	maximum = 114
Network latency average = 35.9625
	minimum = 7
	maximum = 114
Slowest packet = 983
Flit latency average = 35.9625
	minimum = 7
	maximum = 114
Slowest flit = 983
Fragmentation average = 0
	minimum = 0
	maximum = 0
Injected packet rate average = 0.009
	minimum = 0.002 (at node 1)
	maximum = 0.016 (at node 10)
Accepted packet rate average = 0.01
	minimum = 0 (at node 0)
	maximum = 0.16 (at node 12)
Injected flit rate average = 0.009
	minimum = 0.002 (at node 1)
	maximum = 0.016 (at node 10)
Accepted flit rate average= 0.01
	minimum = 0 (at node 0)
	maximum = 0.16 (at node 12)
Injected packet length average = 1
Accepted packet length average = 1
Total in-flight flits = 3 (0 measured)
latency change    = 0.117467
throughput change = 0.2125
Warmed up ...Time used is 1500 cycles
Class 0:
Packet latency average = 28.5672
	minimum = 7
	maximum = 63
Network latency average = 28.5672
	minimum = 7
	maximum = 63
Slowest packet = 1057
Flit latency average = 29.3286
	minimum = 7
	maximum = 63
Slowest flit = 1057
Fragmentation average = 0
	minimum = 0
	maximum = 0
Injected packet rate average = 0.00875
	minimum = 0 (at node 0)
	maximum = 0.018 (at node 6)
Accepted packet rate average = 0.00875
	minimum = 0 (at node 0)
	maximum = 0.14 (at node 12)
Injected flit rate average = 0.00875
	minimum = 0 (at node 0)
	maximum = 0.018 (at node 6)
Accepted flit rate average= 0.00875
	minimum = 0 (at node 0)
	maximum = 0.14 (at node 12)
Injected packet length average = 1
Accepted packet length average = 1
Total in-flight flits = 3 (3 measured)
latency change    = 0.258875
throughput change = 0.142857
Class 0:
Packet latency average = 32.8552
	minimum = 7
	maximum = 111
Network latency average = 32.8552
	minimum = 7
	maximum = 111
Slowest packet = 1166
Flit latency average = 33.1284
	minimum = 7
	maximum = 111
Slowest flit = 1166
Fragmentation average = 0
	minimum = 0
	maximum = 0
Injected packet rate average = 0.0096875
	minimum = 0.004 (at node 8)
	maximum = 0.017 (at node 4)
Accepted packet rate average = 0.00925
	minimum = 0 (at node 0)
	maximum = 0.148 (at node 12)
Injected flit rate average = 0.0096875
	minimum = 0.004 (at node 8)
	maximum = 0.017 (at node 4)
Accepted flit rate average= 0.00925
	minimum = 0 (at node 0)
	maximum = 0.148 (at node 12)
Injected packet length average = 1
Accepted packet length average = 1
Total in-flight flits = 10 (10 measured)
latency change    = 0.130512
throughput change = 0.0540541
Class 0:
Packet latency average = 38.9205
	minimum = 7
	maximum = 205
Network latency average = 38.9205
	minimum = 7
	maximum = 205
Slowest packet = 1229
Flit latency average = 39.0124
	minimum = 7
	maximum = 205
Slowest flit = 1229
Fragmentation average = 0
	minimum = 0
	maximum = 0
Injected packet rate average = 0.010125
	minimum = 0.006 (at node 1)
	maximum = 0.0166667 (at node 4)
Accepted packet rate average = 0.0100833
	minimum = 0 (at node 0)
	maximum = 0.161333 (at node 12)
Injected flit rate average = 0.010125
	minimum = 0.006 (at node 1)
	maximum = 0.0166667 (at node 4)
Accepted flit rate average= 0.0100833
	minimum = 0 (at node 0)
	maximum = 0.161333 (at node 12)
Injected packet length average = 1
Accepted packet length average = 1
Total in-flight flits = 4 (4 measured)
latency change    = 0.155839
throughput change = 0.0826446
Class 0:
Packet latency average = 37.7028
	minimum = 7
	maximum = 205
Network latency average = 37.7028
	minimum = 7
	maximum = 205
Slowest packet = 1229
Flit latency average = 37.7822
	minimum = 7
	maximum = 205
Slowest flit = 1229
Fragmentation average = 0
	minimum = 0
	maximum = 0
Injected packet rate average = 0.0104375
	minimum = 0.0075 (at node 1)
	maximum = 0.0145 (at node 4)
Accepted packet rate average = 0.0101875
	minimum = 0 (at node 0)
	maximum = 0.163 (at node 12)
Injected flit rate average = 0.0104375
	minimum = 0.0075 (at node 1)
	maximum = 0.0145 (at node 4)
Accepted flit rate average= 0.0101875
	minimum = 0 (at node 0)
	maximum = 0.163 (at node 12)
Injected packet length average = 1
Accepted packet length average = 1
Total in-flight flits = 11 (11 measured)
latency change    = 0.0322978
throughput change = 0.0102249
Class 0:
Packet latency average = 39.7114
	minimum = 7
	maximum = 205
Network latency average = 39.7114
	minimum = 7
	maximum = 205
Slowest packet = 1229
Flit latency average = 39.7605
	minimum = 7
	maximum = 205
Slowest flit = 1229
Fragmentation average = 0
	minimum = 0
	maximum = 0
Injected packet rate average = 0.0101
	minimum = 0.0072 (at node 1)
	maximum = 0.0132 (at node 4)
Accepted packet rate average = 0.010125
	minimum = 0 (at node 0)
	maximum = 0.162 (at node 12)
Injected flit rate average = 0.0101
	minimum = 0.0072 (at node 1)
	maximum = 0.0132 (at node 4)
Accepted flit rate average= 0.010125
	minimum = 0 (at node 0)
	maximum = 0.162 (at node 12)
Injected packet length average = 1
Accepted packet length average = 1
Total in-flight flits = 2 (2 measured)
latency change    = 0.0505813
throughput change = 0.00617284
Class 0:
Packet latency average = 38.629
	minimum = 7
	maximum = 205
Network latency average = 38.629
	minimum = 7
	maximum = 205
Slowest packet = 1229
Flit latency average = 38.678
	minimum = 7
	maximum = 205
Slowest flit = 1229
Fragmentation average = 0
	minimum = 0
	maximum = 0
Injected packet rate average = 0.00997917
	minimum = 0.00733333 (at node 8)
	maximum = 0.012 (at node 4)
Accepted packet rate average = 0.00983333
	minimum = 0 (at node 0)
	maximum = 0.157333 (at node 12)
Injected flit rate average = 0.00997917
	minimum = 0.00733333 (at node 8)
	maximum = 0.012 (at node 4)
Accepted flit rate average= 0.00983333
	minimum = 0 (at node 0)
	maximum = 0.157333 (at node 12)
Injected packet length average = 1
Accepted packet length average = 1
Total in-flight flits = 10 (10 measured)
latency change    = 0.0280216
throughput change = 0.029661
Class 0:
Packet latency average = 41.6756
	minimum = 7
	maximum = 212
Network latency average = 41.6756
	minimum = 7
	maximum = 212
Slowest packet = 1556
Flit latency average = 41.7005
	minimum = 7
	maximum = 212
Slowest flit = 1556
Fragmentation average = 0
	minimum = 0
	maximum = 0
Injected packet rate average = 0.010125
	minimum = 0.00771429 (at node 8)
	maximum = 0.0128571 (at node 6)
Accepted packet rate average = 0.0100179
	minimum = 0 (at node 0)
	maximum = 0.160286 (at node 12)
Injected flit rate average = 0.010125
	minimum = 0.00771429 (at node 8)
	maximum = 0.0128571 (at node 6)
Accepted flit rate average= 0.0100179
	minimum = 0 (at node 0)
	maximum = 0.160286 (at node 12)
Injected packet length average = 1
Accepted packet length average = 1
Total in-flight flits = 9 (9 measured)
latency change    = 0.0731034
throughput change = 0.0184195
Draining all recorded packets ...
Draining remaining packets ...
Time taken is 5121 cycles
Class 0:
Packet latency average = 51.3373
	minimum = 7
	maximum = 152
Network latency average = 51.3373
	minimum = 7
	maximum = 152
Slowest packet = 1664
Flit latency average = 51.3373
	minimum = 7
	maximum = 152
Slowest flit = 1664
Fragmentation average = 0
	minimum = 0
	maximum = 0
Injected packet rate average = 0.011
	minimum = 0.002 (at node 8)
	maximum = 0.02 (at node 6)
Accepted packet rate average = 0.010375
	minimum = 0 (at node 0)
	maximum = 0.166 (at node 12)
Injected flit rate average = 0.011
	minimum = 0.002 (at node 8)
	maximum = 0.02 (at node 6)
Accepted flit rate average= 0.010375
	minimum = 0 (at node 0)
	maximum = 0.166 (at node 12)
Injected packet length average = 1
Accepted packet length average = 1
Total in-flight flits = 5 (0 measured)
latency change    = 1
throughput change = 1
Class 0:
Packet latency average = 42.7452
	minimum = 7
	maximum = 152
Network latency average = 42.7452
	minimum = 7
	maximum = 152
Slowest packet = 1664
Flit latency average = 42.7452
	minimum = 7
	maximum = 152
Slowest flit = 1664
Fragmentation average = 0
	minimum = 0
	maximum = 0
Injected packet rate average = 0.0104375
	minimum = 0.005 (at node 8)
	maximum = 0.016 (at node 6)
Accepted packet rate average = 0.0098125
	minimum = 0 (at node 0)
	maximum = 0.157 (at node 12)
Injected flit rate average = 0.0104375
	minimum = 0.005 (at node 8)
	maximum = 0.016 (at node 6)
Accepted flit rate average= 0.0098125
	minimum = 0 (at node 0)
	maximum = 0.157 (at node 12)
Injected packet length average = 1
Accepted packet length average = 1
Total in-flight flits = 10 (0 measured)
latency change    = 0.201008
throughput change = 0.0573248
Class 0:
Packet latency average = 38.1194
	minimum = 7
	maximum = 128
Network latency average = 38.1194
	minimum = 7
	maximum = 128
Slowest packet = 1795
Flit latency average = 38.1194
	minimum = 7
	maximum = 128
Slowest flit = 1795
Fragmentation average = 0
	minimum = 0
	maximum = 0
Injected packet rate average = 0.0075
	minimum = 0 (at node 3)
	maximum = 0.016 (at node 9)
Accepted packet rate average = 0.008375
	minimum = 0 (at node 0)
	maximum = 0.134 (at node 12)
Injected flit rate average = 0.0075
	minimum = 0 (at node 3)
	maximum = 0.016 (at node 9)
Accepted flit rate average= 0.008375
	minimum = 0 (at node 0)
	maximum = 0.134 (at node 12)
Injected packet length average = 1
Accepted packet length average = 1
Total in-flight flits = 3 (0 measured)
latency change    = 0.121351
throughput change = 0.171642
Warmed up ...Time used is 1500 cycles
Class 0:
Packet latency average = 27.303
	minimum = 7
	maximum = 60
Network latency average = 27.303
	minimum = 7
	maximum = 60
Slowest packet = 1906
Flit latency average = 27.3043
	minimum = 7
	maximum = 60
Slowest flit = 1906
Fragmentation average = 0
	minimum = 0
	maximum = 0
Injected packet rate average = 0.00875
	minimum = 0 (at node 14)
	maximum = 0.016 (at node 8)
Accepted packet rate average = 0.008625
	minimum = 0 (at node 0)
	maximum = 0.138 (at node 12)
Injected flit rate average = 0.00875
	minimum = 0 (at node 14)
	maximum = 0.016 (at node 8)
Accepted flit rate average= 0.008625
	minimum = 0 (at node 0)
	maximum = 0.138 (at node 12)
Injected packet length average = 1
Accepted packet length average = 1
Total in-flight flits = 4 (4 measured)
latency change    = 0.39616
throughput change = 0.0289855
Class 0:
Packet latency average = 26.4887
	minimum = 7
	maximum = 60
Network latency average = 26.4887
	minimum = 7
	maximum = 60
Slowest packet = 1906
Flit latency average = 26.5074
	minimum = 7
	maximum = 60
Slowest flit = 1906
Fragmentation average = 0
	minimum = 0
	maximum = 0
Injected packet rate average = 0.0085
	minimum = 0.002 (at node 0)
	maximum = 0.015 (at node 8)
Accepted packet rate average = 0.0085
	minimum = 0 (at node 0)
	maximum = 0.136 (at node 12)
Injected flit rate average = 0.0085
	minimum = 0.002 (at node 0)
	maximum = 0.015 (at node 8)
Accepted flit rate average= 0.0085
	minimum = 0 (at node 0)
	maximum = 0.136 (at node 12)
Injected packet length average = 1
Accepted packet length average = 1
Total in-flight flits = 3 (3 measured)
latency change    = 0.0307417
throughput change = 0.0147059
Class 0:
Packet latency average = 37.2805
	minimum = 7
	maximum = 195
Network latency average = 37.2805
	minimum = 7
	maximum = 195
Slowest packet = 2048
Flit latency average = 37.1473
	minimum = 7
	maximum = 195
Slowest flit = 2048
Fragmentation average = 0
	minimum = 0
	maximum = 0
Injected packet rate average = 0.00966667
	minimum = 0.00466667 (at node 0)
	maximum = 0.0153333 (at node 8)
Accepted packet rate average = 0.00933333
	minimum = 0 (at node 0)
	maximum = 0.149333 (at node 12)
Injected flit rate average = 0.00966667
	minimum = 0.00466667 (at node 0)
	maximum = 0.0153333 (at node 8)
Accepted flit rate average= 0.00933333
	minimum = 0 (at node 0)
	maximum = 0.149333 (at node 12)
Injected packet length average = 1
Accepted packet length average = 1
Total in-flight flits = 11 (11 measured)
latency change    = 0.289476
throughput change = 0.0892857
Class 0:
Packet latency average = 37.9697
	minimum = 7
	maximum = 227
Network latency average = 37.9697
	minimum = 7
	maximum = 227
Slowest packet = 2067
Flit latency average = 37.8633
	minimum = 7
	maximum = 227
Slowest flit = 2067
Fragmentation average = 0
	minimum = 0
	maximum = 0
Injected packet rate average = 0.0094375
	minimum = 0.005 (at node 0)
	maximum = 0.013 (at node 4)
Accepted packet rate average = 0.009375
	minimum = 0 (at node 0)
	maximum = 0.15 (at node 12)
Injected flit rate average = 0.0094375
	minimum = 0.005 (at node 0)
	maximum = 0.013 (at node 4)
Accepted flit rate average= 0.009375
	minimum = 0 (at node 0)
	maximum = 0.15 (at node 12)
Injected packet length average = 1
Accepted packet length average = 1
Total in-flight flits = 5 (5 measured)
latency change    = 0.0181501
throughput change = 0.00444444
Class 0:
Packet latency average = 36.4193
	minimum = 7
	maximum = 227
Network latency average = 36.4193
	minimum = 7
	maximum = 227
Slowest packet = 2067
Flit latency average = 36.3427
	minimum = 7
	maximum = 227
Slowest flit = 2067
Fragmentation average = 0
	minimum = 0
	maximum = 0
Injected packet rate average = 0.008975
	minimum = 0.0056 (at node 0)
	maximum = 0.0108 (at node 4)
Accepted packet rate average = 0.0089
	minimum = 0 (at node 0)
	maximum = 0.1424 (at node 12)
Injected flit rate average = 0.008975
	minimum = 0.0056 (at node 0)
	maximum = 0.0108 (at node 4)
Accepted flit rate average= 0.0089
	minimum = 0 (at node 0)
	maximum = 0.1424 (at node 12)
Injected packet length average = 1
Accepted packet length average = 1
Total in-flight flits = 6 (6 measured)
latency change    = 0.0425718
throughput change = 0.0533708
Class 0:
Packet latency average = 35.7136
	minimum = 7
	maximum = 227
Network latency average = 35.7136
	minimum = 7
	maximum = 227
Slowest packet = 2067
Flit latency average = 35.655
	minimum = 7
	maximum = 227
Slowest flit = 2067
Fragmentation average = 0
	minimum = 0
	maximum = 0
Injected packet rate average = 0.00895833
	minimum = 0.006 (at node 0)
	maximum = 0.0113333 (at node 8)
Accepted packet rate average = 0.0089375
	minimum = 0 (at node 0)
	maximum = 0.143 (at node 12)
Injected flit rate average = 0.00895833
	minimum = 0.006 (at node 0)
	maximum = 0.0113333 (at node 8)
Accepted flit rate average= 0.0089375
	minimum = 0 (at node 0)
	maximum = 0.143 (at node 12)
Injected packet length average = 1
Accepted packet length average = 1
Total in-flight flits = 4 (4 measured)
latency change    = 0.0197585
throughput change = 0.0041958
Class 0:
Packet latency average = 34.7603
	minimum = 7
	maximum = 227
Network latency average = 34.7603
	minimum = 7
	maximum = 227
Slowest packet = 2067
Flit latency average = 34.7168
	minimum = 7
	maximum = 227
Slowest flit = 2067
Fragmentation average = 0
	minimum = 0
	maximum = 0
Injected packet rate average = 0.00916071
	minimum = 0.00685714 (at node 2)
	maximum = 0.0117143 (at node 8)
Accepted packet rate average = 0.00914286
	minimum = 0 (at node 0)
	maximum = 0.146286 (at node 12)
Injected flit rate average = 0.00916071
	minimum = 0.00685714 (at node 2)
	maximum = 0.0117143 (at node 8)
Accepted flit rate average= 0.00914286
	minimum = 0 (at node 0)
	maximum = 0.146286 (at node 12)
Injected packet length average = 1
Accepted packet length average = 1
Total in-flight flits = 4 (4 measured)
latency change    = 0.027425
throughput change = 0.0224609
Draining all recorded packets ...
Draining remaining packets ...
Time taken is 5064 cycles
Class 0:
Packet latency average = 29.5735
	minimum = 7
	maximum = 73
Network latency average = 29.5735
	minimum = 7
	maximum = 73
Slowest packet = 2410
Flit latency average = 29.5735
	minimum = 7
	maximum = 73
Slowest flit = 2410
Fragmentation average = 0
	minimum = 0
	maximum = 0
Injected packet rate average = 0.00925
	minimum = 0.002 (at node 6)
	maximum = 0.014 (at node 3)
Accepted packet rate average = 0.0085
	minimum = 0 (at node 0)
	maximum = 0.136 (at node 12)
Injected flit rate average = 0.00925
	minimum = 0.002 (at node 6)
	maximum = 0.014 (at node 3)
Accepted flit rate average= 0.0085
	minimum = 0 (at node 0)
	maximum = 0.136 (at node 12)
Injected packet length average = 1
Accepted packet length average = 1
Total in-flight flits = 6 (0 measured)
latency change    = 1
throughput change = 1
Class 0:
Packet latency average = 33.4467
	minimum = 7
	maximum = 95
Network latency average = 33.4467
	minimum = 7
	maximum = 95
Slowest packet = 2453
Flit latency average = 33.4467
	minimum = 7
	maximum = 95
Slowest flit = 2453
Fragmentation average = 0
	minimum = 0
	maximum = 0
Injected packet rate average = 0.0095625
	minimum = 0.005 (at node 9)
	maximum = 0.013 (at node 3)
Accepted packet rate average = 0.009375
	minimum = 0 (at node 0)
	maximum = 0.15 (at node 12)
Injected flit rate average = 0.0095625
	minimum = 0.005 (at node 9)
	maximum = 0.013 (at node 3)
Accepted flit rate average= 0.009375
	minimum = 0 (at node 0)
	maximum = 0.15 (at node 12)
Injected packet length average = 1
Accepted packet length average = 1
Total in-flight flits = 3 (0 measured)
latency change    = 0.1158
throughput change = 0.0933333
Class 0:
Packet latency average = 28.4267
	minimum = 7
	maximum = 62
Network latency average = 28.4267
	minimum = 7
	maximum = 62
Slowest packet = 2580
Flit latency average = 28.4267
	minimum = 7
	maximum = 62
Slowest flit = 2580
Fragmentation average = 0
	minimum = 0
	maximum = 0
Injected packet rate average = 0.009625
	minimum = 0.004 (at node 3)
	maximum = 0.02 (at node 15)
Accepted packet rate average = 0.009375
	minimum = 0 (at node 0)
	maximum = 0.15 (at node 12)
Injected flit rate average = 0.009625
	minimum = 0.004 (at node 3)
	maximum = 0.02 (at node 15)
Accepted flit rate average= 0.009375
	minimum = 0 (at node 0)
	maximum = 0.15 (at node 12)
Injected packet length average = 1
Accepted packet length average = 1
Total in-flight flits = 5 (0 measured)
latency change    = 0.176595
throughput change = 0
Warmed up ...Time used is 1500 cycles
Class 0:
Packet latency average = 31.9625
	minimum = 7
	maximum = 89
Network latency average = 31.9625
	minimum = 7
	maximum = 89
Slowest packet = 2664
Flit latency average = 31.9059
	minimum = 7
	maximum = 89
Slowest flit = 2664
Fragmentation average = 0
	minimum = 0
	maximum = 0
Injected packet rate average = 0.01075
	minimum = 0.004 (at node 6)
	maximum = 0.018 (at node 13)
Accepted packet rate average = 0.010625
	minimum = 0 (at node 0)
	maximum = 0.17 (at node 12)
Injected flit rate average = 0.01075
	minimum = 0.004 (at node 6)
	maximum = 0.018 (at node 13)
Accepted flit rate average= 0.010625
	minimum = 0 (at node 0)
	maximum = 0.17 (at node 12)
Injected packet length average = 1
Accepted packet length average = 1
Total in-flight flits = 6 (6 measured)
latency change    = 0.110624
throughput change = 0.117647
Class 0:
Packet latency average = 32.8718
	minimum = 7
	maximum = 99
Network latency average = 32.8718
	minimum = 7
	maximum = 99
Slowest packet = 2729
Flit latency average = 32.8137
	minimum = 7
	maximum = 99
Slowest flit = 2729
Fragmentation average = 0
	minimum = 0
	maximum = 0
Injected packet rate average = 0.010125
	minimum = 0.005 (at node 5)
	maximum = 0.014 (at node 2)
Accepted packet rate average = 0.0100625
	minimum = 0 (at node 0)
	maximum = 0.161 (at node 12)
Injected flit rate average = 0.010125
	minimum = 0.005 (at node 5)
	maximum = 0.014 (at node 2)
Accepted flit rate average= 0.0100625
	minimum = 0 (at node 0)
	maximum = 0.161 (at node 12)
Injected packet length average = 1
Accepted packet length average = 1
Total in-flight flits = 6 (6 measured)
latency change    = 0.0276619
throughput change = 0.0559006
Class 0:
Packet latency average = 31.8697
	minimum = 7
	maximum = 99
Network latency average = 31.8697
	minimum = 7
	maximum = 99
Slowest packet = 2729
Flit latency average = 31.8519
	minimum = 7
	maximum = 99
Slowest flit = 2729
Fragmentation average = 0
	minimum = 0
	maximum = 0
Injected packet rate average = 0.0100833
	minimum = 0.006 (at node 5)
	maximum = 0.0133333 (at node 2)
Accepted packet rate average = 0.010125
	minimum = 0 (at node 0)
	maximum = 0.162 (at node 12)
Injected flit rate average = 0.0100833
	minimum = 0.006 (at node 5)
	maximum = 0.0133333 (at node 2)
Accepted flit rate average= 0.010125
	minimum = 0 (at node 0)
	maximum = 0.162 (at node 12)
Injected packet length average = 1
Accepted packet length average = 1
Total in-flight flits = 4 (4 measured)
latency change    = 0.0314419
throughput change = 0.00617284
Class 0:
Packet latency average = 31.9241
	minimum = 7
	maximum = 99
Network latency average = 31.9241
	minimum = 7
	maximum = 99
Slowest packet = 2729
Flit latency average = 31.9097
	minimum = 7
	maximum = 99
Slowest flit = 2729
Fragmentation average = 0
	minimum = 0
	maximum = 0
Injected packet rate average = 0.0100313
	minimum = 0.0055 (at node 8)
	maximum = 0.0135 (at node 14)
Accepted packet rate average = 0.0100313
	minimum = 0 (at node 0)
	maximum = 0.1605 (at node 12)
Injected flit rate average = 0.0100313
	minimum = 0.0055 (at node 8)
	maximum = 0.0135 (at node 14)
Accepted flit rate average= 0.0100313
	minimum = 0 (at node 0)
	maximum = 0.1605 (at node 12)
Injected packet length average = 1
Accepted packet length average = 1
Total in-flight flits = 5 (5 measured)
latency change    = 0.001701
throughput change = 0.00934579
Class 0:
Packet latency average = 33.2562
	minimum = 7
	maximum = 121
Network latency average = 33.2562
	minimum = 7
	maximum = 121
Slowest packet = 2983
Flit latency average = 33.2285
	minimum = 7
	maximum = 121
Slowest flit = 2983
Fragmentation average = 0
	minimum = 0
	maximum = 0
Injected packet rate average = 0.0101
	minimum = 0.0064 (at node 8)
	maximum = 0.0144 (at node 7)
Accepted packet rate average = 0.010175
	minimum = 0 (at node 0)
	maximum = 0.1628 (at node 12)
Injected flit rate average = 0.0101
	minimum = 0.0064 (at node 8)
	maximum = 0.0144 (at node 7)
Accepted flit rate average= 0.010175
	minimum = 0 (at node 0)
	maximum = 0.1628 (at node 12)
Injected packet length average = 1
Accepted packet length average = 1
Total in-flight flits = 2 (2 measured)
latency change    = 0.0400577
throughput change = 0.0141278
Draining all recorded packets ...
Draining remaining packets ...
Time taken is 4091 cycles
Class 0:
Packet latency average = 37.321
	minimum = 7
	maximum = 109
Network latency average = 37.321
	minimum = 7
	maximum = 109
Slowest packet = 3047
Flit latency average = 37.321
	minimum = 7
	maximum = 109
Slowest flit = 3047
Fragmentation average = 0
	minimum = 0
	maximum = 0
Injected packet rate average = 0.01075
	minimum = 0.002 (at node 3)
	maximum = 0.016 (at node 4)
Accepted packet rate average = 0.010125
	minimum = 0 (at node 0)
	maximum = 0.162 (at node 12)
Injected flit rate average = 0.01075
	minimum = 0.002 (at node 3)
	maximum = 0.016 (at node 4)
Accepted flit rate average= 0.010125
	minimum = 0 (at node 0)
	maximum = 0.162 (at node 12)
Injected packet length average = 1
Accepted packet length average = 1
Total in-flight flits = 5 (0 measured)
latency change    = 1
throughput change = 1
Class 0:
Packet latency average = 33.5215
	minimum = 7
	maximum = 109
Network latency average = 33.5215
	minimum = 7
	maximum = 109
Slowest packet = 3047
Flit latency average = 33.5215
	minimum = 7
	maximum = 109
Slowest flit = 3047
Fragmentation average = 0
	minimum = 0
	maximum = 0
Injected packet rate average = 0.010375
	minimum = 0.002 (at node 3)
	maximum = 0.019 (at node 4)
Accepted packet rate average = 0.0101875
	minimum = 0 (at node 0)
	maximum = 0.163 (at node 12)
Injected flit rate average = 0.010375
	minimum = 0.002 (at node 3)
	maximum = 0.019 (at node 4)
Accepted flit rate average= 0.0101875
	minimum = 0 (at node 0)
	maximum = 0.163 (at node 12)
Injected packet length average = 1
Accepted packet length average = 1
Total in-flight flits = 3 (0 measured)
latency change    = 0.113346
throughput change = 0.00613497
Class 0:
Packet latency average = 37.1481
	minimum = 7
	maximum = 103
Network latency average = 37.1481
	minimum = 7
	maximum = 103
Slowest packet = 3249
Flit latency average = 37.1481
	minimum = 7
	maximum = 103
Slowest flit = 3249
Fragmentation average = 0
	minimum = 0
	maximum = 0
Injected packet rate average = 0.01075
	minimum = 0 (at node 0)
	maximum = 0.02 (at node 5)
Accepted packet rate average = 0.010125
	minimum = 0 (at node 0)
	maximum = 0.162 (at node 12)
Injected flit rate average = 0.01075
	minimum = 0 (at node 0)
	maximum = 0.02 (at node 5)
Accepted flit rate average= 0.010125
	minimum = 0 (at node 0)
	maximum = 0.162 (at node 12)
Injected packet length average = 1
Accepted packet length average = 1
Total in-flight flits = 8 (0 measured)
latency change    = 0.0976274
throughput change = 0.00617284
Warmed up ...Time used is 1500 cycles
Class 0:
Packet latency average = 27.6364
	minimum = 7
	maximum = 74
Network latency average = 27.6364
	minimum = 7
	maximum = 74
Slowest packet = 3317
Flit latency average = 30.0811
	minimum = 7
	maximum = 79
Slowest flit = 3259
Fragmentation average = 0
	minimum = 0
	maximum = 0
Injected packet rate average = 0.008625
	minimum = 0.002 (at node 4)
	maximum = 0.016 (at node 13)
Accepted packet rate average = 0.00925
	minimum = 0 (at node 0)
	maximum = 0.148 (at node 12)
Injected flit rate average = 0.008625
	minimum = 0.002 (at node 4)
	maximum = 0.016 (at node 13)
Accepted flit rate average= 0.00925
	minimum = 0 (at node 0)
	maximum = 0.148 (at node 12)
Injected packet length average = 1
Accepted packet length average = 1
Total in-flight flits = 3 (3 measured)
latency change    = 0.344176
throughput change = 0.0945946
Class 0:
Packet latency average = 29.0137
	minimum = 7
	maximum = 89
Network latency average = 29.0137
	minimum = 7
	maximum = 89
Slowest packet = 3408
Flit latency average = 30.1169
	minimum = 7
	maximum = 89
Slowest flit = 3408
Fragmentation average = 0
	minimum = 0
	maximum = 0
Injected packet rate average = 0.0095
	minimum = 0.005 (at node 6)
	maximum = 0.017 (at node 13)
Accepted packet rate average = 0.009625
	minimum = 0 (at node 0)
	maximum = 0.154 (at node 12)
Injected flit rate average = 0.0095
	minimum = 0.005 (at node 6)
	maximum = 0.017 (at node 13)
Accepted flit rate average= 0.009625
	minimum = 0 (at node 0)
	maximum = 0.154 (at node 12)
Injected packet length average = 1
Accepted packet length average = 1
Total in-flight flits = 6 (6 measured)
latency change    = 0.0474719
throughput change = 0.038961
Class 0:
Packet latency average = 32.3926
	minimum = 7
	maximum = 128
Network latency average = 32.3926
	minimum = 7
	maximum = 128
Slowest packet = 3415
Flit latency average = 32.964
	minimum = 7
	maximum = 128
Slowest flit = 3415
Fragmentation average = 0
	minimum = 0
	maximum = 0
Injected packet rate average = 0.0104583
	minimum = 0.00666667 (at node 14)
	maximum = 0.018 (at node 13)
Accepted packet rate average = 0.0104167
	minimum = 0 (at node 0)
	maximum = 0.166667 (at node 12)
Injected flit rate average = 0.0104583
	minimum = 0.00666667 (at node 14)
	maximum = 0.018 (at node 13)
Accepted flit rate average= 0.0104167
	minimum = 0 (at node 0)
	maximum = 0.166667 (at node 12)
Injected packet length average = 1
Accepted packet length average = 1
Total in-flight flits = 9 (9 measured)
latency change    = 0.10431
throughput change = 0.076
Class 0:
Packet latency average = 34.4969
	minimum = 7
	maximum = 128
Network latency average = 34.4969
	minimum = 7
	maximum = 128
Slowest packet = 3415
Flit latency average = 34.8834
	minimum = 7
	maximum = 128
Slowest flit = 3415
Fragmentation average = 0
	minimum = 0
	maximum = 0
Injected packet rate average = 0.0101875
	minimum = 0.0065 (at node 14)
	maximum = 0.0145 (at node 13)
Accepted packet rate average = 0.0101875
	minimum = 0 (at node 0)
	maximum = 0.163 (at node 12)
Injected flit rate average = 0.0101875
	minimum = 0.0065 (at node 14)
	maximum = 0.0145 (at node 13)
Accepted flit rate average= 0.0101875
	minimum = 0 (at node 0)
	maximum = 0.163 (at node 12)
Injected packet length average = 1
Accepted packet length average = 1
Total in-flight flits = 8 (8 measured)
latency change    = 0.0609996
throughput change = 0.0224949
Class 0:
Packet latency average = 34.149
	minimum = 7
	maximum = 128
Network latency average = 34.149
	minimum = 7
	maximum = 128
Slowest packet = 3415
Flit latency average = 34.4678
	minimum = 7
	maximum = 128
Slowest flit = 3415
Fragmentation average = 0
	minimum = 0
	maximum = 0
Injected packet rate average = 0.010025
	minimum = 0.0064 (at node 14)
	maximum = 0.0128 (at node 13)
Accepted packet rate average = 0.0101
	minimum = 0 (at node 0)
	maximum = 0.1616 (at node 12)
Injected flit rate average = 0.010025
	minimum = 0.0064 (at node 14)
	maximum = 0.0128 (at node 13)
Accepted flit rate average= 0.0101
	minimum = 0 (at node 0)
	maximum = 0.1616 (at node 12)
Injected packet length average = 1
Accepted packet length average = 1
Total in-flight flits = 5 (5 measured)
latency change    = 0.0101867
throughput change = 0.00866337
Class 0:
Packet latency average = 34.3126
	minimum = 7
	maximum = 128
Network latency average = 34.3126
	minimum = 7
	maximum = 128
Slowest packet = 3415
Flit latency average = 34.5723
	minimum = 7
	maximum = 128
Slowest flit = 3415
Fragmentation average = 0
	minimum = 0
	maximum = 0
Injected packet rate average = 0.0101458
	minimum = 0.00733333 (at node 14)
	maximum = 0.0133333 (at node 13)
Accepted packet rate average = 0.0102292
	minimum = 0 (at node 0)
	maximum = 0.163667 (at node 12)
Injected flit rate average = 0.0101458
	minimum = 0.00733333 (at node 14)
	maximum = 0.0133333 (at node 13)
Accepted flit rate average= 0.0102292
	minimum = 0 (at node 0)
	maximum = 0.163667 (at node 12)
Injected packet length average = 1
Accepted packet length average = 1
Total in-flight flits = 4 (4 measured)
latency change    = 0.00476907
throughput change = 0.0126273
Class 0:
Packet latency average = 33.8658
	minimum = 7
	maximum = 128
Network latency average = 33.8658
	minimum = 7
	maximum = 128
Slowest packet = 3415
Flit latency average = 34.097
	minimum = 7
	maximum = 128
Slowest flit = 3415
Fragmentation average = 0
	minimum = 0
	maximum = 0
Injected packet rate average = 0.0101607
	minimum = 0.00742857 (at node 14)
	maximum = 0.0134286 (at node 13)
Accepted packet rate average = 0.010125
	minimum = 0 (at node 0)
	maximum = 0.162 (at node 12)
Injected flit rate average = 0.0101607
	minimum = 0.00742857 (at node 14)
	maximum = 0.0134286 (at node 13)
Accepted flit rate average= 0.010125
	minimum = 0 (at node 0)
	maximum = 0.162 (at node 12)
Injected packet length average = 1
Accepted packet length average = 1
Total in-flight flits = 10 (10 measured)
latency change    = 0.0131932
throughput change = 0.0102881
Draining all recorded packets ...
Draining remaining packets ...
Time taken is 5141 cycles
Class 0:
Packet latency average = 28.8667
	minimum = 7
	maximum = 61
Network latency average = 28.8667
	minimum = 7
	maximum = 61
Slowest packet = 3902
Flit latency average = 28.8667
	minimum = 7
	maximum = 61
Slowest flit = 3902
Fragmentation average = 0
	minimum = 0
	maximum = 0
Injected packet rate average = 0.007875
	minimum = 0.002 (at node 0)
	maximum = 0.016 (at node 14)
Accepted packet rate average = 0.0075
	minimum = 0 (at node 0)
	maximum = 0.12 (at node 12)
Injected flit rate average = 0.007875
	minimum = 0.002 (at node 0)
	maximum = 0.016 (at node 14)
Accepted flit rate average= 0.0075
	minimum = 0 (at node 0)
	maximum = 0.12 (at node 12)
Injected packet length average = 1
Accepted packet length average = 1
Total in-flight flits = 3 (0 measured)
latency change    = 1
throughput change = 1
Class 0:
Packet latency average = 32.8182
	minimum = 7
	maximum = 94
Network latency average = 32.8182
	minimum = 7
	maximum = 94
Slowest packet = 3952
Flit latency average = 32.8182
	minimum = 7
	maximum = 94
Slowest flit = 3952
Fragmentation average = 0
	minimum = 0
	maximum = 0
Injected packet rate average = 0.0085625
	minimum = 0.005 (at node 6)
	maximum = 0.013 (at node 5)
Accepted packet rate average = 0.00825
	minimum = 0 (at node 0)
	maximum = 0.132 (at node 12)
Injected flit rate average = 0.0085625
	minimum = 0.005 (at node 6)
	maximum = 0.013 (at node 5)
Accepted flit rate average= 0.00825
	minimum = 0 (at node 0)
	maximum = 0.132 (at node 12)
Injected packet length average = 1
Accepted packet length average = 1
Total in-flight flits = 5 (0 measured)
latency change    = 0.120406
throughput change = 0.0909091
Class 0:
Packet latency average = 33.0822
	minimum = 7
	maximum = 75
Network latency average = 33.0822
	minimum = 7
	maximum = 75
Slowest packet = 4042
Flit latency average = 33.0822
	minimum = 7
	maximum = 75
Slowest flit = 4042
Fragmentation average = 0
	minimum = 0
	maximum = 0
Injected packet rate average = 0.00875
	minimum = 0 (at node 4)
	maximum = 0.018 (at node 10)
Accepted packet rate average = 0.009125
	minimum = 0 (at node 0)
	maximum = 0.146 (at node 12)
Injected flit rate average = 0.00875
	minimum = 0 (at node 4)
	maximum = 0.018 (at node 10)
Accepted flit rate average= 0.009125
	minimum = 0 (at node 0)
	maximum = 0.146 (at node 12)
Injected packet length average = 1
Accepted packet length average = 1
Total in-flight flits = 2 (0 measured)
latency change    = 0.00798043
throughput change = 0.0958904
Warmed up ...Time used is 1500 cycles
Class 0:
Packet latency average = 32.7639
	minimum = 7
	maximum = 94
Network latency average = 32.7639
	minimum = 7
	maximum = 94
Slowest packet = 4110
Flit latency average = 32.9324
	minimum = 7
	maximum = 94
Slowest flit = 4110
Fragmentation average = 0
	minimum = 0
	maximum = 0
Injected packet rate average = 0.0105
	minimum = 0.004 (at node 6)
	maximum = 0.022 (at node 10)
Accepted packet rate average = 0.00925
	minimum = 0 (at node 0)
	maximum = 0.148 (at node 12)
Injected flit rate average = 0.0105
	minimum = 0.004 (at node 6)
	maximum = 0.022 (at node 10)
Accepted flit rate average= 0.00925
	minimum = 0 (at node 0)
	maximum = 0.148 (at node 12)
Injected packet length average = 1
Accepted packet length average = 1
Total in-flight flits = 12 (12 measured)
latency change    = 0.00971505
throughput change = 0.0135135
Class 0:
Packet latency average = 54.5988
	minimum = 7
	maximum = 261
Network latency average = 54.5988
	minimum = 7
	maximum = 261
Slowest packet = 4163
Flit latency average = 54.4085
	minimum = 7
	maximum = 261
Slowest flit = 4163
Fragmentation average = 0
	minimum = 0
	maximum = 0
Injected packet rate average = 0.0113125
	minimum = 0.006 (at node 8)
	maximum = 0.019 (at node 3)
Accepted packet rate average = 0.01025
	minimum = 0 (at node 0)
	maximum = 0.164 (at node 12)
Injected flit rate average = 0.0113125
	minimum = 0.006 (at node 8)
	maximum = 0.019 (at node 3)
Accepted flit rate average= 0.01025
	minimum = 0 (at node 0)
	maximum = 0.164 (at node 12)
Injected packet length average = 1
Accepted packet length average = 1
Total in-flight flits = 19 (19 measured)
latency change    = 0.399915
throughput change = 0.097561
Class 0:
Packet latency average = 65.8164
	minimum = 7
	maximum = 404
Network latency average = 65.8164
	minimum = 7
	maximum = 404
Slowest packet = 4236
Flit latency average = 65.6085
	minimum = 7
	maximum = 404
Slowest flit = 4236
Fragmentation average = 0
	minimum = 0
	maximum = 0
Injected packet rate average = 0.0111667
	minimum = 0.00733333 (at node 0)
	maximum = 0.0186667 (at node 7)
Accepted packet rate average = 0.01075
	minimum = 0 (at node 0)
	maximum = 0.172 (at node 12)
Injected flit rate average = 0.0111667
	minimum = 0.00733333 (at node 0)
	maximum = 0.0186667 (at node 7)
Accepted flit rate average= 0.01075
	minimum = 0 (at node 0)
	maximum = 0.172 (at node 12)
Injected packet length average = 1
Accepted packet length average = 1
Total in-flight flits = 12 (12 measured)
latency change    = 0.170438
throughput change = 0.0465116
Class 0:
Packet latency average = 60.4732
	minimum = 7
	maximum = 404
Network latency average = 60.4732
	minimum = 7
	maximum = 404
Slowest packet = 4236
Flit latency average = 60.3529
	minimum = 7
	maximum = 404
Slowest flit = 4236
Fragmentation average = 0
	minimum = 0
	maximum = 0
Injected packet rate average = 0.0113125
	minimum = 0.0075 (at node 0)
	maximum = 0.0175 (at node 7)
Accepted packet rate average = 0.0111562
	minimum = 0 (at node 0)
	maximum = 0.1785 (at node 12)
Injected flit rate average = 0.0113125
	minimum = 0.0075 (at node 0)
	maximum = 0.0175 (at node 7)
Accepted flit rate average= 0.0111562
	minimum = 0 (at node 0)
	maximum = 0.1785 (at node 12)
Injected packet length average = 1
Accepted packet length average = 1
Total in-flight flits = 7 (7 measured)
latency change    = 0.0883559
throughput change = 0.0364146
Class 0:
Packet latency average = 55.5958
	minimum = 7
	maximum = 404
Network latency average = 55.5958
	minimum = 7
	maximum = 404
Slowest packet = 4236
Flit latency average = 55.5195
	minimum = 7
	maximum = 404
Slowest flit = 4236
Fragmentation average = 0
	minimum = 0
	maximum = 0
Injected packet rate average = 0.0109
	minimum = 0.0072 (at node 0)
	maximum = 0.016 (at node 7)
Accepted packet rate average = 0.010875
	minimum = 0 (at node 0)
	maximum = 0.174 (at node 12)
Injected flit rate average = 0.0109
	minimum = 0.0072 (at node 0)
	maximum = 0.016 (at node 7)
Accepted flit rate average= 0.010875
	minimum = 0 (at node 0)
	maximum = 0.174 (at node 12)
Injected packet length average = 1
Accepted packet length average = 1
Total in-flight flits = 3 (3 measured)
latency change    = 0.0877295
throughput change = 0.0258621
Class 0:
Packet latency average = 51.7877
	minimum = 7
	maximum = 404
Network latency average = 51.7877
	minimum = 7
	maximum = 404
Slowest packet = 4236
Flit latency average = 51.7372
	minimum = 7
	maximum = 404
Slowest flit = 4236
Fragmentation average = 0
	minimum = 0
	maximum = 0
Injected packet rate average = 0.0105833
	minimum = 0.00666667 (at node 0)
	maximum = 0.0143333 (at node 7)
Accepted packet rate average = 0.0105417
	minimum = 0 (at node 0)
	maximum = 0.168667 (at node 12)
Injected flit rate average = 0.0105833
	minimum = 0.00666667 (at node 0)
	maximum = 0.0143333 (at node 7)
Accepted flit rate average= 0.0105417
	minimum = 0 (at node 0)
	maximum = 0.168667 (at node 12)
Injected packet length average = 1
Accepted packet length average = 1
Total in-flight flits = 4 (4 measured)
latency change    = 0.0735338
throughput change = 0.0316206
Class 0:
Packet latency average = 48.8547
	minimum = 7
	maximum = 404
Network latency average = 48.8547
	minimum = 7
	maximum = 404
Slowest packet = 4236
Flit latency average = 48.8211
	minimum = 7
	maximum = 404
Slowest flit = 4236
Fragmentation average = 0
	minimum = 0
	maximum = 0
Injected packet rate average = 0.0105357
	minimum = 0.00742857 (at node 0)
	maximum = 0.0145714 (at node 7)
Accepted packet rate average = 0.0104821
	minimum = 0 (at node 0)
	maximum = 0.167714 (at node 12)
Injected flit rate average = 0.0105357
	minimum = 0.00742857 (at node 0)
	maximum = 0.0145714 (at node 7)
Accepted flit rate average= 0.0104821
	minimum = 0 (at node 0)
	maximum = 0.167714 (at node 12)
Injected packet length average = 1
Accepted packet length average = 1
Total in-flight flits = 5 (5 measured)
latency change    = 0.0600351
throughput change = 0.00567859
Draining all recorded packets ...
Draining remaining packets ...
Time taken is 5085 cycles
Class 0:
Packet latency average = 29.5955
	minimum = 7
	maximum = 82
Network latency average = 29.5955
	minimum = 7
	maximum = 82
Slowest packet = 4695
Flit latency average = 29.5955
	minimum = 7
	maximum = 82
Slowest flit = 4695
Fragmentation average = 0
	minimum = 0
	maximum = 0
Injected packet rate average = 0.011375
	minimum = 0.002 (at node 4)
	maximum = 0.022 (at node 11)
Accepted packet rate average = 0.011125
	minimum = 0 (at node 0)
	maximum = 0.178 (at node 12)
Injected flit rate average = 0.011375
	minimum = 0.002 (at node 4)
	maximum = 0.022 (at node 11)
Accepted flit rate average= 0.011125
	minimum = 0 (at node 0)
	maximum = 0.178 (at node 12)
Injected packet length average = 1
Accepted packet length average = 1
Total in-flight flits = 2 (0 measured)
latency change    = 1
throughput change = 1
Class 0:
Packet latency average = 32.3034
	minimum = 7
	maximum = 101
Network latency average = 32.3034
	minimum = 7
	maximum = 101
Slowest packet = 4821
Flit latency average = 32.3034
	minimum = 7
	maximum = 101
Slowest flit = 4821
Fragmentation average = 0
	minimum = 0
	maximum = 0
Injected packet rate average = 0.0120625
	minimum = 0.006 (at node 4)
	maximum = 0.019 (at node 11)
Accepted packet rate average = 0.011125
	minimum = 0 (at node 0)
	maximum = 0.178 (at node 12)
Injected flit rate average = 0.0120625
	minimum = 0.006 (at node 4)
	maximum = 0.019 (at node 11)
Accepted flit rate average= 0.011125
	minimum = 0 (at node 0)
	maximum = 0.178 (at node 12)
Injected packet length average = 1
Accepted packet length average = 1
Total in-flight flits = 15 (0 measured)
latency change    = 0.0838261
throughput change = 0
Class 0:
Packet latency average = 67.914
	minimum = 7
	maximum = 264
Network latency average = 67.914
	minimum = 7
	maximum = 264
Slowest packet = 4868
Flit latency average = 67.914
	minimum = 7
	maximum = 264
Slowest flit = 4868
Fragmentation average = 0
	minimum = 0
	maximum = 0
Injected packet rate average = 0.012625
	minimum = 0.006 (at node 15)
	maximum = 0.026 (at node 2)
Accepted packet rate average = 0.011625
	minimum = 0 (at node 0)
	maximum = 0.186 (at node 12)
Injected flit rate average = 0.012625
	minimum = 0.006 (at node 15)
	maximum = 0.026 (at node 2)
Accepted flit rate average= 0.011625
	minimum = 0 (at node 0)
	maximum = 0.186 (at node 12)
Injected packet length average = 1
Accepted packet length average = 1
Total in-flight flits = 24 (0 measured)
latency change    = 0.524349
throughput change = 0.0430108
Warmed up ...Time used is 1500 cycles
Class 0:
Packet latency average = 37.6029
	minimum = 7
	maximum = 213
Network latency average = 37.6029
	minimum = 7
	maximum = 213
Slowest packet = 4954
Flit latency average = 76.7065
	minimum = 7
	maximum = 474
Slowest flit = 4918
Fragmentation average = 0
	minimum = 0
	maximum = 0
Injected packet rate average = 0.00925
	minimum = 0.002 (at node 2)
	maximum = 0.016 (at node 1)
Accepted packet rate average = 0.0115
	minimum = 0 (at node 0)
	maximum = 0.184 (at node 12)
Injected flit rate average = 0.00925
	minimum = 0.002 (at node 2)
	maximum = 0.016 (at node 1)
Accepted flit rate average= 0.0115
	minimum = 0 (at node 0)
	maximum = 0.184 (at node 12)
Injected packet length average = 1
Accepted packet length average = 1
Total in-flight flits = 5 (5 measured)
latency change    = 0.806082
throughput change = 0.0108696
Class 0:
Packet latency average = 34.7308
	minimum = 7
	maximum = 213
Network latency average = 34.7308
	minimum = 7
	maximum = 213
Slowest packet = 4954
Flit latency average = 55.1
	minimum = 7
	maximum = 474
Slowest flit = 4918
Fragmentation average = 0
	minimum = 0
	maximum = 0
Injected packet rate average = 0.0104375
	minimum = 0.006 (at node 2)
	maximum = 0.017 (at node 15)
Accepted packet rate average = 0.01125
	minimum = 0 (at node 0)
	maximum = 0.18 (at node 12)
Injected flit rate average = 0.0104375
	minimum = 0.006 (at node 2)
	maximum = 0.017 (at node 15)
Accepted flit rate average= 0.01125
	minimum = 0 (at node 0)
	maximum = 0.18 (at node 12)
Injected packet length average = 1
Accepted packet length average = 1
Total in-flight flits = 10 (10 measured)
latency change    = 0.0826982
throughput change = 0.0222222
Class 0:
Packet latency average = 38.052
	minimum = 7
	maximum = 213
Network latency average = 38.052
	minimum = 7
	maximum = 213
Slowest packet = 4954
Flit latency average = 51.1423
	minimum = 7
	maximum = 474
Slowest flit = 4918
Fragmentation average = 0
	minimum = 0
	maximum = 0
Injected packet rate average = 0.0107083
	minimum = 0.008 (at node 5)
	maximum = 0.0146667 (at node 15)
Accepted packet rate average = 0.0114167
	minimum = 0 (at node 0)
	maximum = 0.182667 (at node 12)
Injected flit rate average = 0.0107083
	minimum = 0.008 (at node 5)
	maximum = 0.0146667 (at node 15)
Accepted flit rate average= 0.0114167
	minimum = 0 (at node 0)
	maximum = 0.182667 (at node 12)
Injected packet length average = 1
Accepted packet length average = 1
Total in-flight flits = 6 (6 measured)
latency change    = 0.0872814
throughput change = 0.0145985
Class 0:
Packet latency average = 35.2736
	minimum = 7
	maximum = 213
Network latency average = 35.2736
	minimum = 7
	maximum = 213
Slowest packet = 4954
Flit latency average = 45.6232
	minimum = 7
	maximum = 474
Slowest flit = 4918
Fragmentation average = 0
	minimum = 0
	maximum = 0
Injected packet rate average = 0.0105
	minimum = 0.007 (at node 5)
	maximum = 0.014 (at node 13)
Accepted packet rate average = 0.0110312
	minimum = 0 (at node 0)
	maximum = 0.1765 (at node 12)
Injected flit rate average = 0.0105
	minimum = 0.007 (at node 5)
	maximum = 0.014 (at node 13)
Accepted flit rate average= 0.0110312
	minimum = 0 (at node 0)
	maximum = 0.1765 (at node 12)
Injected packet length average = 1
Accepted packet length average = 1
Total in-flight flits = 6 (6 measured)
latency change    = 0.0787685
throughput change = 0.0349386
Class 0:
Packet latency average = 35.2673
	minimum = 7
	maximum = 213
Network latency average = 35.2673
	minimum = 7
	maximum = 213
Slowest packet = 4954
Flit latency average = 43.8037
	minimum = 7
	maximum = 474
Slowest flit = 4918
Fragmentation average = 0
	minimum = 0
	maximum = 0
Injected packet rate average = 0.0104
	minimum = 0.008 (at node 4)
	maximum = 0.0128 (at node 13)
Accepted packet rate average = 0.0107
	minimum = 0 (at node 0)
	maximum = 0.1712 (at node 12)
Injected flit rate average = 0.0104
	minimum = 0.008 (at node 4)
	maximum = 0.0128 (at node 13)
Accepted flit rate average= 0.0107
	minimum = 0 (at node 0)
	maximum = 0.1712 (at node 12)
Injected packet length average = 1
Accepted packet length average = 1
Total in-flight flits = 11 (11 measured)
latency change    = 0.000176637
throughput change = 0.0309579
Class 0:
Packet latency average = 35.2249
	minimum = 7
	maximum = 213
Network latency average = 35.2249
	minimum = 7
	maximum = 213
Slowest packet = 4954
Flit latency average = 42.2261
	minimum = 7
	maximum = 474
Slowest flit = 4918
Fragmentation average = 0
	minimum = 0
	maximum = 0
Injected packet rate average = 0.0105417
	minimum = 0.00766667 (at node 0)
	maximum = 0.0126667 (at node 13)
Accepted packet rate average = 0.010875
	minimum = 0 (at node 0)
	maximum = 0.174 (at node 12)
Injected flit rate average = 0.0105417
	minimum = 0.00766667 (at node 0)
	maximum = 0.0126667 (at node 13)
Accepted flit rate average= 0.010875
	minimum = 0 (at node 0)
	maximum = 0.174 (at node 12)
Injected packet length average = 1
Accepted packet length average = 1
Total in-flight flits = 7 (7 measured)
latency change    = 0.00120446
throughput change = 0.016092
Class 0:
Packet latency average = 35.3541
	minimum = 7
	maximum = 213
Network latency average = 35.3541
	minimum = 7
	maximum = 213
Slowest packet = 4954
Flit latency average = 41.4096
	minimum = 7
	maximum = 474
Slowest flit = 4918
Fragmentation average = 0
	minimum = 0
	maximum = 0
Injected packet rate average = 0.0104464
	minimum = 0.00857143 (at node 0)
	maximum = 0.0122857 (at node 12)
Accepted packet rate average = 0.0107679
	minimum = 0 (at node 0)
	maximum = 0.172286 (at node 12)
Injected flit rate average = 0.0104464
	minimum = 0.00857143 (at node 0)
	maximum = 0.0122857 (at node 12)
Accepted flit rate average= 0.0107679
	minimum = 0 (at node 0)
	maximum = 0.172286 (at node 12)
Injected packet length average = 1
Accepted packet length average = 1
Total in-flight flits = 5 (5 measured)
latency change    = 0.0036533
throughput change = 0.00995025
Draining all recorded packets ...
Draining remaining packets ...
Time taken is 5084 cycles
Class 0:
Packet latency average = 43.4935
	minimum = 7
	maximum = 129
Network latency average = 43.4935
	minimum = 7
	maximum = 129
Slowest packet = 5566
Flit latency average = 43.4935
	minimum = 7
	maximum = 129
Slowest flit = 5566
Fragmentation average = 0
	minimum = 0
	maximum = 0
Injected packet rate average = 0.010625
	minimum = 0 (at node 10)
	maximum = 0.02 (at node 3)
Accepted packet rate average = 0.009625
	minimum = 0 (at node 0)
	maximum = 0.154 (at node 12)
Injected flit rate average = 0.010625
	minimum = 0 (at node 10)
	maximum = 0.02 (at node 3)
Accepted flit rate average= 0.009625
	minimum = 0 (at node 0)
	maximum = 0.154 (at node 12)
Injected packet length average = 1
Accepted packet length average = 1
Total in-flight flits = 8 (0 measured)
latency change    = 1
throughput change = 1
Class 0:
Packet latency average = 39.9876
	minimum = 7
	maximum = 129
Network latency average = 39.9876
	minimum = 7
	maximum = 129
Slowest packet = 5566
Flit latency average = 39.9876
	minimum = 7
	maximum = 129
Slowest flit = 5566
Fragmentation average = 0
	minimum = 0
	maximum = 0
Injected packet rate average = 0.0104375
	minimum = 0.006 (at node 1)
	maximum = 0.017 (at node 3)
Accepted packet rate average = 0.0100625
	minimum = 0 (at node 0)
	maximum = 0.161 (at node 12)
Injected flit rate average = 0.0104375
	minimum = 0.006 (at node 1)
	maximum = 0.017 (at node 3)
Accepted flit rate average= 0.0100625
	minimum = 0 (at node 0)
	maximum = 0.161 (at node 12)
Injected packet length average = 1
Accepted packet length average = 1
Total in-flight flits = 6 (0 measured)
latency change    = 0.0876754
throughput change = 0.0434783
Class 0:
Packet latency average = 32.6438
	minimum = 7
	maximum = 86
Network latency average = 32.6438
	minimum = 7
	maximum = 86
Slowest packet = 5701
Flit latency average = 32.6438
	minimum = 7
	maximum = 86
Slowest flit = 5701
Fragmentation average = 0
	minimum = 0
	maximum = 0
Injected packet rate average = 0.008875
	minimum = 0.002 (at node 11)
	maximum = 0.018 (at node 8)
Accepted packet rate average = 0.009125
	minimum = 0 (at node 0)
	maximum = 0.146 (at node 12)
Injected flit rate average = 0.008875
	minimum = 0.002 (at node 11)
	maximum = 0.018 (at node 8)
Accepted flit rate average= 0.009125
	minimum = 0 (at node 0)
	maximum = 0.146 (at node 12)
Injected packet length average = 1
Accepted packet length average = 1
Total in-flight flits = 4 (0 measured)
latency change    = 0.224966
throughput change = 0.10274
Warmed up ...Time used is 1500 cycles
Class 0:
Packet latency average = 43.8293
	minimum = 7
	maximum = 132
Network latency average = 43.8293
	minimum = 7
	maximum = 132
Slowest packet = 5811
Flit latency average = 43.6279
	minimum = 7
	maximum = 132
Slowest flit = 5811
Fragmentation average = 0
	minimum = 0
	maximum = 0
Injected packet rate average = 0.010875
	minimum = 0.004 (at node 4)
	maximum = 0.02 (at node 8)
Accepted packet rate average = 0.01075
	minimum = 0 (at node 0)
	maximum = 0.172 (at node 12)
Injected flit rate average = 0.010875
	minimum = 0.004 (at node 4)
	maximum = 0.02 (at node 8)
Accepted flit rate average= 0.01075
	minimum = 0 (at node 0)
	maximum = 0.172 (at node 12)
Injected packet length average = 1
Accepted packet length average = 1
Total in-flight flits = 5 (5 measured)
latency change    = 0.255205
throughput change = 0.151163
Class 0:
Packet latency average = 34.6728
	minimum = 7
	maximum = 132
Network latency average = 34.6728
	minimum = 7
	maximum = 132
Slowest packet = 5811
Flit latency average = 34.7892
	minimum = 7
	maximum = 132
Slowest flit = 5811
Fragmentation average = 0
	minimum = 0
	maximum = 0
Injected packet rate average = 0.0104375
	minimum = 0.006 (at node 6)
	maximum = 0.016 (at node 14)
Accepted packet rate average = 0.010375
	minimum = 0 (at node 0)
	maximum = 0.166 (at node 12)
Injected flit rate average = 0.0104375
	minimum = 0.006 (at node 6)
	maximum = 0.016 (at node 14)
Accepted flit rate average= 0.010375
	minimum = 0 (at node 0)
	maximum = 0.166 (at node 12)
Injected packet length average = 1
Accepted packet length average = 1
Total in-flight flits = 5 (5 measured)
latency change    = 0.264081
throughput change = 0.0361446
Class 0:
Packet latency average = 33.1762
	minimum = 7
	maximum = 132
Network latency average = 33.1762
	minimum = 7
	maximum = 132
Slowest packet = 5811
Flit latency average = 33.2857
	minimum = 7
	maximum = 132
Slowest flit = 5811
Fragmentation average = 0
	minimum = 0
	maximum = 0
Injected packet rate average = 0.00954167
	minimum = 0.006 (at node 3)
	maximum = 0.0153333 (at node 14)
Accepted packet rate average = 0.009625
	minimum = 0 (at node 0)
	maximum = 0.154 (at node 12)
Injected flit rate average = 0.00954167
	minimum = 0.006 (at node 3)
	maximum = 0.0153333 (at node 14)
Accepted flit rate average= 0.009625
	minimum = 0 (at node 0)
	maximum = 0.154 (at node 12)
Injected packet length average = 1
Accepted packet length average = 1
Total in-flight flits = 2 (2 measured)
latency change    = 0.0451115
throughput change = 0.0779221
Class 0:
Packet latency average = 34.87
	minimum = 7
	maximum = 132
Network latency average = 34.87
	minimum = 7
	maximum = 132
Slowest packet = 5811
Flit latency average = 34.9309
	minimum = 7
	maximum = 132
Slowest flit = 5811
Fragmentation average = 0
	minimum = 0
	maximum = 0
Injected packet rate average = 0.0095625
	minimum = 0.007 (at node 3)
	maximum = 0.0145 (at node 14)
Accepted packet rate average = 0.0095
	minimum = 0 (at node 0)
	maximum = 0.152 (at node 12)
Injected flit rate average = 0.0095625
	minimum = 0.007 (at node 3)
	maximum = 0.0145 (at node 14)
Accepted flit rate average= 0.0095
	minimum = 0 (at node 0)
	maximum = 0.152 (at node 12)
Injected packet length average = 1
Accepted packet length average = 1
Total in-flight flits = 6 (6 measured)
latency change    = 0.0485744
throughput change = 0.0131579
Class 0:
Packet latency average = 34.8616
	minimum = 7
	maximum = 132
Network latency average = 34.8616
	minimum = 7
	maximum = 132
Slowest packet = 5811
Flit latency average = 34.9096
	minimum = 7
	maximum = 132
Slowest flit = 5811
Fragmentation average = 0
	minimum = 0
	maximum = 0
Injected packet rate average = 0.00985
	minimum = 0.0072 (at node 4)
	maximum = 0.014 (at node 14)
Accepted packet rate average = 0.009675
	minimum = 0 (at node 0)
	maximum = 0.1548 (at node 12)
Injected flit rate average = 0.00985
	minimum = 0.0072 (at node 4)
	maximum = 0.014 (at node 14)
Accepted flit rate average= 0.009675
	minimum = 0 (at node 0)
	maximum = 0.1548 (at node 12)
Injected packet length average = 1
Accepted packet length average = 1
Total in-flight flits = 11 (11 measured)
latency change    = 0.000240413
throughput change = 0.0180879
Class 0:
Packet latency average = 37.1188
	minimum = 7
	maximum = 188
Network latency average = 37.1188
	minimum = 7
	maximum = 188
Slowest packet = 6163
Flit latency average = 37.1392
	minimum = 7
	maximum = 188
Slowest flit = 6163
Fragmentation average = 0
	minimum = 0
	maximum = 0
Injected packet rate average = 0.00972917
	minimum = 0.007 (at node 4)
	maximum = 0.0126667 (at node 14)
Accepted packet rate average = 0.00972917
	minimum = 0 (at node 0)
	maximum = 0.155667 (at node 12)
Injected flit rate average = 0.00972917
	minimum = 0.007 (at node 4)
	maximum = 0.0126667 (at node 14)
Accepted flit rate average= 0.00972917
	minimum = 0 (at node 0)
	maximum = 0.155667 (at node 12)
Injected packet length average = 1
Accepted packet length average = 1
Total in-flight flits = 4 (4 measured)
latency change    = 0.0608094
throughput change = 0.00556745
Class 0:
Packet latency average = 36.1496
	minimum = 7
	maximum = 188
Network latency average = 36.1496
	minimum = 7
	maximum = 188
Slowest packet = 6163
Flit latency average = 36.1739
	minimum = 7
	maximum = 188
Slowest flit = 6163
Fragmentation average = 0
	minimum = 0
	maximum = 0
Injected packet rate average = 0.00991071
	minimum = 0.00742857 (at node 4)
	maximum = 0.0122857 (at node 14)
Accepted packet rate average = 0.00985714
	minimum = 0 (at node 0)
	maximum = 0.157714 (at node 12)
Injected flit rate average = 0.00991071
	minimum = 0.00742857 (at node 4)
	maximum = 0.0122857 (at node 14)
Accepted flit rate average= 0.00985714
	minimum = 0 (at node 0)
	maximum = 0.157714 (at node 12)
Injected packet length average = 1
Accepted packet length average = 1
Total in-flight flits = 7 (7 measured)
latency change    = 0.0268096
throughput change = 0.0129831
Draining all recorded packets ...
Draining remaining packets ...
Time taken is 5093 cycles
Class 0:
Packet latency average = 26.25
	minimum = 7
	maximum = 54
Network latency average = 26.25
	minimum = 7
	maximum = 54
Slowest packet = 6353
Flit latency average = 26.25
	minimum = 7
	maximum = 54
Slowest flit = 6353
Fragmentation average = 0
	minimum = 0
	maximum = 0
Injected packet rate average = 0.00775
	minimum = 0.002 (at node 5)
	maximum = 0.018 (at node 15)
Accepted packet rate average = 0.0075
	minimum = 0 (at node 0)
	maximum = 0.12 (at node 12)
Injected flit rate average = 0.00775
	minimum = 0.002 (at node 5)
	maximum = 0.018 (at node 15)
Accepted flit rate average= 0.0075
	minimum = 0 (at node 0)
	maximum = 0.12 (at node 12)
Injected packet length average = 1
Accepted packet length average = 1
Total in-flight flits = 2 (0 measured)
latency change    = 1
throughput change = 1
Class 0:
Packet latency average = 29.8306
	minimum = 7
	maximum = 81
Network latency average = 29.8306
	minimum = 7
	maximum = 81
Slowest packet = 6422
Flit latency average = 29.8306
	minimum = 7
	maximum = 81
Slowest flit = 6422
Fragmentation average = 0
	minimum = 0
	maximum = 0
Injected packet rate average = 0.008125
	minimum = 0.002 (at node 13)
	maximum = 0.015 (at node 0)
Accepted packet rate average = 0.00775
	minimum = 0 (at node 0)
	maximum = 0.124 (at node 12)
Injected flit rate average = 0.008125
	minimum = 0.002 (at node 13)
	maximum = 0.015 (at node 0)
Accepted flit rate average= 0.00775
	minimum = 0 (at node 0)
	maximum = 0.124 (at node 12)
Injected packet length average = 1
Accepted packet length average = 1
Total in-flight flits = 6 (0 measured)
latency change    = 0.120032
throughput change = 0.0322581
Class 0:
Packet latency average = 45.35
	minimum = 7
	maximum = 162
Network latency average = 45.35
	minimum = 7
	maximum = 162
Slowest packet = 6525
Flit latency average = 45.35
	minimum = 7
	maximum = 162
Slowest flit = 6525
Fragmentation average = 0
	minimum = 0
	maximum = 0
Injected packet rate average = 0.01
	minimum = 0.006 (at node 9)
	maximum = 0.016 (at node 1)
Accepted packet rate average = 0.01
	minimum = 0 (at node 0)
	maximum = 0.16 (at node 12)
Injected flit rate average = 0.01
	minimum = 0.006 (at node 9)
	maximum = 0.016 (at node 1)
Accepted flit rate average= 0.01
	minimum = 0 (at node 0)
	maximum = 0.16 (at node 12)
Injected packet length average = 1
Accepted packet length average = 1
Total in-flight flits = 6 (0 measured)
latency change    = 0.342213
throughput change = 0.225
Warmed up ...Time used is 1500 cycles
Class 0:
Packet latency average = 30.1852
	minimum = 7
	maximum = 90
Network latency average = 30.1852
	minimum = 7
	maximum = 90
Slowest packet = 6599
Flit latency average = 36.3908
	minimum = 7
	maximum = 202
Slowest flit = 6526
Fragmentation average = 0
	minimum = 0
	maximum = 0
Injected packet rate average = 0.01075
	minimum = 0.006 (at node 4)
	maximum = 0.022 (at node 10)
Accepted packet rate average = 0.010875
	minimum = 0 (at node 0)
	maximum = 0.174 (at node 12)
Injected flit rate average = 0.01075
	minimum = 0.006 (at node 4)
	maximum = 0.022 (at node 10)
Accepted flit rate average= 0.010875
	minimum = 0 (at node 0)
	maximum = 0.174 (at node 12)
Injected packet length average = 1
Accepted packet length average = 1
Total in-flight flits = 5 (5 measured)
latency change    = 0.502393
throughput change = 0.0804598
Class 0:
Packet latency average = 30.0588
	minimum = 7
	maximum = 90
Network latency average = 30.0588
	minimum = 7
	maximum = 90
Slowest packet = 6599
Flit latency average = 33.4591
	minimum = 7
	maximum = 202
Slowest flit = 6526
Fragmentation average = 0
	minimum = 0
	maximum = 0
Injected packet rate average = 0.0099375
	minimum = 0.006 (at node 5)
	maximum = 0.017 (at node 10)
Accepted packet rate average = 0.0099375
	minimum = 0 (at node 0)
	maximum = 0.159 (at node 12)
Injected flit rate average = 0.0099375
	minimum = 0.006 (at node 5)
	maximum = 0.017 (at node 10)
Accepted flit rate average= 0.0099375
	minimum = 0 (at node 0)
	maximum = 0.159 (at node 12)
Injected packet length average = 1
Accepted packet length average = 1
Total in-flight flits = 6 (6 measured)
latency change    = 0.00420381
throughput change = 0.0943396
Class 0:
Packet latency average = 37.8852
	minimum = 7
	maximum = 250
Network latency average = 37.8852
	minimum = 7
	maximum = 250
Slowest packet = 6736
Flit latency average = 39.86
	minimum = 7
	maximum = 250
Slowest flit = 6736
Fragmentation average = 0
	minimum = 0
	maximum = 0
Injected packet rate average = 0.0104167
	minimum = 0.00733333 (at node 1)
	maximum = 0.0153333 (at node 4)
Accepted packet rate average = 0.0104167
	minimum = 0 (at node 0)
	maximum = 0.166667 (at node 12)
Injected flit rate average = 0.0104167
	minimum = 0.00733333 (at node 1)
	maximum = 0.0153333 (at node 4)
Accepted flit rate average= 0.0104167
	minimum = 0 (at node 0)
	maximum = 0.166667 (at node 12)
Injected packet length average = 1
Accepted packet length average = 1
Total in-flight flits = 6 (6 measured)
latency change    = 0.206582
throughput change = 0.046
Class 0:
Packet latency average = 37.0712
	minimum = 7
	maximum = 250
Network latency average = 37.0712
	minimum = 7
	maximum = 250
Slowest packet = 6736
Flit latency average = 38.5866
	minimum = 7
	maximum = 250
Slowest flit = 6736
Fragmentation average = 0
	minimum = 0
	maximum = 0
Injected packet rate average = 0.0103438
	minimum = 0.008 (at node 1)
	maximum = 0.014 (at node 4)
Accepted packet rate average = 0.0102813
	minimum = 0 (at node 0)
	maximum = 0.1645 (at node 12)
Injected flit rate average = 0.0103438
	minimum = 0.008 (at node 1)
	maximum = 0.014 (at node 4)
Accepted flit rate average= 0.0102813
	minimum = 0 (at node 0)
	maximum = 0.1645 (at node 12)
Injected packet length average = 1
Accepted packet length average = 1
Total in-flight flits = 8 (8 measured)
latency change    = 0.0219588
throughput change = 0.0131712
Class 0:
Packet latency average = 37.0099
	minimum = 7
	maximum = 250
Network latency average = 37.0099
	minimum = 7
	maximum = 250
Slowest packet = 6736
Flit latency average = 38.2238
	minimum = 7
	maximum = 250
Slowest flit = 6736
Fragmentation average = 0
	minimum = 0
	maximum = 0
Injected packet rate average = 0.010325
	minimum = 0.0076 (at node 1)
	maximum = 0.014 (at node 10)
Accepted packet rate average = 0.010275
	minimum = 0 (at node 0)
	maximum = 0.1644 (at node 12)
Injected flit rate average = 0.010325
	minimum = 0.0076 (at node 1)
	maximum = 0.014 (at node 10)
Accepted flit rate average= 0.010275
	minimum = 0 (at node 0)
	maximum = 0.1644 (at node 12)
Injected packet length average = 1
Accepted packet length average = 1
Total in-flight flits = 8 (8 measured)
latency change    = 0.00165715
throughput change = 0.000608273
Class 0:
Packet latency average = 36.3373
	minimum = 7
	maximum = 250
Network latency average = 36.3373
	minimum = 7
	maximum = 250
Slowest packet = 6736
Flit latency average = 37.3353
	minimum = 7
	maximum = 250
Slowest flit = 6736
Fragmentation average = 0
	minimum = 0
	maximum = 0
Injected packet rate average = 0.0104583
	minimum = 0.00766667 (at node 1)
	maximum = 0.014 (at node 4)
Accepted packet rate average = 0.0105
	minimum = 0 (at node 0)
	maximum = 0.168 (at node 12)
Injected flit rate average = 0.0104583
	minimum = 0.00766667 (at node 1)
	maximum = 0.014 (at node 4)
Accepted flit rate average= 0.0105
	minimum = 0 (at node 0)
	maximum = 0.168 (at node 12)
Injected packet length average = 1
Accepted packet length average = 1
Total in-flight flits = 4 (4 measured)
latency change    = 0.0185079
throughput change = 0.0214286
Draining all recorded packets ...
Draining remaining packets ...
Time taken is 4563 cycles
Class 0:
Packet latency average = 33.75
	minimum = 7
	maximum = 79
Network latency average = 33.75
	minimum = 7
	maximum = 79
Slowest packet = 7111
Flit latency average = 33.75
	minimum = 7
	maximum = 79
Slowest flit = 7111
Fragmentation average = 0
	minimum = 0
	maximum = 0
Injected packet rate average = 0.00975
	minimum = 0.002 (at node 8)
	maximum = 0.024 (at node 14)
Accepted packet rate average = 0.009
	minimum = 0 (at node 0)
	maximum = 0.144 (at node 12)
Injected flit rate average = 0.00975
	minimum = 0.002 (at node 8)
	maximum = 0.024 (at node 14)
Accepted flit rate average= 0.009
	minimum = 0 (at node 0)
	maximum = 0.144 (at node 12)
Injected packet length average = 1
Accepted packet length average = 1
Total in-flight flits = 6 (0 measured)
latency change    = 1
throughput change = 1
Class 0:
Packet latency average = 31.3786
	minimum = 7
	maximum = 79
Network latency average = 31.3786
	minimum = 7
	maximum = 79
Slowest packet = 7111
Flit latency average = 31.3786
	minimum = 7
	maximum = 79
Slowest flit = 7111
Fragmentation average = 0
	minimum = 0
	maximum = 0
Injected packet rate average = 0.0091875
	minimum = 0.005 (at node 2)
	maximum = 0.017 (at node 14)
Accepted packet rate average = 0.00875
	minimum = 0 (at node 0)
	maximum = 0.14 (at node 12)
Injected flit rate average = 0.0091875
	minimum = 0.005 (at node 2)
	maximum = 0.017 (at node 14)
Accepted flit rate average= 0.00875
	minimum = 0 (at node 0)
	maximum = 0.14 (at node 12)
Injected packet length average = 1
Accepted packet length average = 1
Total in-flight flits = 7 (0 measured)
latency change    = 0.0755748
throughput change = 0.0285714
Class 0:
Packet latency average = 31.375
	minimum = 7
	maximum = 100
Network latency average = 31.375
	minimum = 7
	maximum = 100
Slowest packet = 7196
Flit latency average = 31.375
	minimum = 7
	maximum = 100
Slowest flit = 7196
Fragmentation average = 0
	minimum = 0
	maximum = 0
Injected packet rate average = 0.0095
	minimum = 0.004 (at node 2)
	maximum = 0.02 (at node 4)
Accepted packet rate average = 0.01
	minimum = 0 (at node 0)
	maximum = 0.16 (at node 12)
Injected flit rate average = 0.0095
	minimum = 0.004 (at node 2)
	maximum = 0.02 (at node 4)
Accepted flit rate average= 0.01
	minimum = 0 (at node 0)
	maximum = 0.16 (at node 12)
Injected packet length average = 1
Accepted packet length average = 1
Total in-flight flits = 3 (0 measured)
latency change    = 0.00011383
throughput change = 0.125
Warmed up ...Time used is 1500 cycles
Class 0:
Packet latency average = 34.3699
	minimum = 7
	maximum = 86
Network latency average = 34.3699
	minimum = 7
	maximum = 86
Slowest packet = 7317
Flit latency average = 34.8289
	minimum = 7
	maximum = 86
Slowest flit = 7317
Fragmentation average = 0
	minimum = 0
	maximum = 0
Injected packet rate average = 0.00975
	minimum = 0.002 (at node 9)
	maximum = 0.02 (at node 0)
Accepted packet rate average = 0.0095
	minimum = 0 (at node 0)
	maximum = 0.152 (at node 12)
Injected flit rate average = 0.00975
	minimum = 0.002 (at node 9)
	maximum = 0.02 (at node 0)
Accepted flit rate average= 0.0095
	minimum = 0 (at node 0)
	maximum = 0.152 (at node 12)
Injected packet length average = 1
Accepted packet length average = 1
Total in-flight flits = 5 (5 measured)
latency change    = 0.0871363
throughput change = 0.0526316
Class 0:
Packet latency average = 32.5944
	minimum = 7
	maximum = 86
Network latency average = 32.5944
	minimum = 7
	maximum = 86
Slowest packet = 7317
Flit latency average = 32.8699
	minimum = 7
	maximum = 86
Slowest flit = 7317
Fragmentation average = 0
	minimum = 0
	maximum = 0
Injected packet rate average = 0.0095
	minimum = 0.005 (at node 9)
	maximum = 0.016 (at node 0)
Accepted packet rate average = 0.009125
	minimum = 0 (at node 0)
	maximum = 0.146 (at node 12)
Injected flit rate average = 0.0095
	minimum = 0.005 (at node 9)
	maximum = 0.016 (at node 0)
Accepted flit rate average= 0.009125
	minimum = 0 (at node 0)
	maximum = 0.146 (at node 12)
Injected packet length average = 1
Accepted packet length average = 1
Total in-flight flits = 9 (9 measured)
latency change    = 0.0544712
throughput change = 0.0410959
Class 0:
Packet latency average = 36.0181
	minimum = 7
	maximum = 145
Network latency average = 36.0181
	minimum = 7
	maximum = 145
Slowest packet = 7436
Flit latency average = 36.1518
	minimum = 7
	maximum = 145
Slowest flit = 7436
Fragmentation average = 0
	minimum = 0
	maximum = 0
Injected packet rate average = 0.009375
	minimum = 0.00666667 (at node 9)
	maximum = 0.0126667 (at node 0)
Accepted packet rate average = 0.00933333
	minimum = 0 (at node 0)
	maximum = 0.149333 (at node 12)
Injected flit rate average = 0.009375
	minimum = 0.00666667 (at node 9)
	maximum = 0.0126667 (at node 0)
Accepted flit rate average= 0.00933333
	minimum = 0 (at node 0)
	maximum = 0.149333 (at node 12)
Injected packet length average = 1
Accepted packet length average = 1
Total in-flight flits = 4 (4 measured)
latency change    = 0.0950548
throughput change = 0.0223214
Class 0:
Packet latency average = 34.7799
	minimum = 7
	maximum = 145
Network latency average = 34.7799
	minimum = 7
	maximum = 145
Slowest packet = 7436
Flit latency average = 34.8878
	minimum = 7
	maximum = 145
Slowest flit = 7436
[...]
Class 0:
Packet latency average = 33.9627
	minimum = 7
	maximum = 150
Network latency average = 33.9627
	minimum = 7
	maximum = 150
Slowest packet = 36162
Flit latency average = 34.2783
	minimum = 7
	maximum = 150
Slowest flit = 36162
Fragmentation average = 0
	minimum = 0
	maximum = 0
Injected packet rate average = 0.00972917
	minimum = 0.00666667 (at node 12)
	maximum = 0.012 (at node 0)
Accepted packet rate average = 0.00958333
	minimum = 0 (at node 0)
	maximum = 0.153333 (at node 12)
Injected flit rate average = 0.00972917
	minimum = 0.00666667 (at node 12)
	maximum = 0.012 (at node 0)
Accepted flit rate average= 0.00958333
	minimum = 0 (at node 0)
	maximum = 0.153333 (at node 12)
Injected packet length average = 1
Accepted packet length average = 1
Total in-flight flits = 11 (11 measured)
latency change    = 0.0543171
throughput change = 0.0165217
Class 0:
Packet latency average = 35.2306
	minimum = 7
	maximum = 175
Network latency average = 35.2306
	minimum = 7
	maximum = 175
Slowest packet = 36186
Flit latency average = 35.4934
	minimum = 7
	maximum = 175
Slowest flit = 36186
Fragmentation average = 0
	minimum = 0
	maximum = 0
Injected packet rate average = 0.00958929
	minimum = 0.00714286 (at node 12)
	maximum = 0.012 (at node 8)
Accepted packet rate average = 0.00951786
	minimum = 0 (at node 0)
	maximum = 0.152286 (at node 12)
Injected flit rate average = 0.00958929
	minimum = 0.00714286 (at node 12)
	maximum = 0.012 (at node 8)
Accepted flit rate average= 0.00951786
	minimum = 0 (at node 0)
	maximum = 0.152286 (at node 12)
Injected packet length average = 1
Accepted packet length average = 1
Total in-flight flits = 8 (8 measured)
latency change    = 0.0359887
throughput change = 0.0068793
Draining all recorded packets ...
Draining remaining packets ...
Time taken is 5138 cycles
Class 0:
Packet latency average = 34.8462
	minimum = 7
	maximum = 88
Network latency average = 34.8462
	minimum = 7
	maximum = 88
Slowest packet = 36312
Flit latency average = 34.8462
	minimum = 7
	maximum = 88
Slowest flit = 36312
Fragmentation average = 0
	minimum = 0
	maximum = 0
Injected packet rate average = 0.0105
	minimum = 0.002 (at node 13)
	maximum = 0.02 (at node 11)
Accepted packet rate average = 0.00975
	minimum = 0 (at node 0)
	maximum = 0.156 (at node 12)
Injected flit rate average = 0.0105
	minimum = 0.002 (at node 13)
	maximum = 0.02 (at node 11)
Accepted flit rate average= 0.00975
	minimum = 0 (at node 0)
	maximum = 0.156 (at node 12)
Injected packet length average = 1
Accepted packet length average = 1
Total in-flight flits = 6 (0 measured)
latency change    = 1
throughput change = 1
Class 0:
Packet latency average = 46.9477
	minimum = 7
	maximum = 173
Network latency average = 46.9477
	minimum = 7
	maximum = 173
Slowest packet = 36397
Flit latency average = 46.9477
	minimum = 7
	maximum = 173
Slowest flit = 36397
Fragmentation average = 0
	minimum = 0
	maximum = 0
Injected packet rate average = 0.0100625
	minimum = 0.005 (at node 12)
	maximum = 0.017 (at node 1)
Accepted packet rate average = 0.0095625
	minimum = 0 (at node 0)
	maximum = 0.153 (at node 12)
Injected flit rate average = 0.0100625
	minimum = 0.005 (at node 12)
	maximum = 0.017 (at node 1)
Accepted flit rate average= 0.0095625
	minimum = 0 (at node 0)
	maximum = 0.153 (at node 12)
Injected packet length average = 1
Accepted packet length average = 1
Total in-flight flits = 8 (0 measured)
latency change    = 0.257767
throughput change = 0.0196078
Class 0:
Packet latency average = 34.7639
	minimum = 7
	maximum = 95
Network latency average = 34.7639
	minimum = 7
	maximum = 95
Slowest packet = 36482
Flit latency average = 34.7639
	minimum = 7
	maximum = 95
Slowest flit = 36482
Fragmentation average = 0
	minimum = 0
	maximum = 0
Injected packet rate average = 0.00875
	minimum = 0.002 (at node 8)
	maximum = 0.016 (at node 2)
Accepted packet rate average = 0.009
	minimum = 0 (at node 0)
	maximum = 0.144 (at node 12)
Injected flit rate average = 0.00875
	minimum = 0.002 (at node 8)
	maximum = 0.016 (at node 2)
Accepted flit rate average= 0.009
	minimum = 0 (at node 0)
	maximum = 0.144 (at node 12)
Injected packet length average = 1
Accepted packet length average = 1
Total in-flight flits = 6 (0 measured)
latency change    = 0.350474
throughput change = 0.0625
Warmed up ...Time used is 1500 cycles
Class 0:
Packet latency average = 39.863
	minimum = 7
	maximum = 142
Network latency average = 39.863
	minimum = 7
	maximum = 142
Slowest packet = 36565
Flit latency average = 39.5443
	minimum = 7
	maximum = 142
Slowest flit = 36565
Fragmentation average = 0
	minimum = 0
	maximum = 0
Injected packet rate average = 0.01
	minimum = 0.006 (at node 0)
	maximum = 0.02 (at node 3)
Accepted packet rate average = 0.009875
	minimum = 0 (at node 0)
	maximum = 0.158 (at node 12)
Injected flit rate average = 0.01
	minimum = 0.006 (at node 0)
	maximum = 0.02 (at node 3)
Accepted flit rate average= 0.009875
	minimum = 0 (at node 0)
	maximum = 0.158 (at node 12)
Injected packet length average = 1
Accepted packet length average = 1
Total in-flight flits = 7 (7 measured)
latency change    = 0.127916
throughput change = 0.0886076
Class 0:
Packet latency average = 36.6194
	minimum = 7
	maximum = 146
Network latency average = 36.6194
	minimum = 7
	maximum = 146
Slowest packet = 36571
Flit latency average = 36.5839
	minimum = 7
	maximum = 146
Slowest flit = 36571
Fragmentation average = 0
	minimum = 0
	maximum = 0
Injected packet rate average = 0.0099375
	minimum = 0.006 (at node 4)
	maximum = 0.014 (at node 3)
Accepted packet rate average = 0.0100625
	minimum = 0 (at node 0)
	maximum = 0.161 (at node 12)
Injected flit rate average = 0.0099375
	minimum = 0.006 (at node 4)
	maximum = 0.014 (at node 3)
Accepted flit rate average= 0.0100625
	minimum = 0 (at node 0)
	maximum = 0.161 (at node 12)
Injected packet length average = 1
Accepted packet length average = 1
Total in-flight flits = 4 (4 measured)
latency change    = 0.0885777
throughput change = 0.0186335
Class 0:
Packet latency average = 34.3054
	minimum = 7
	maximum = 146
Network latency average = 34.3054
	minimum = 7
	maximum = 146
Slowest packet = 36571
Flit latency average = 34.3388
	minimum = 7
	maximum = 146
Slowest flit = 36571
Fragmentation average = 0
	minimum = 0
	maximum = 0
Injected packet rate average = 0.0100417
	minimum = 0.00733333 (at node 7)
	maximum = 0.0133333 (at node 3)
Accepted packet rate average = 0.0102083
	minimum = 0 (at node 0)
	maximum = 0.163333 (at node 12)
Injected flit rate average = 0.0100417
	minimum = 0.00733333 (at node 7)
	maximum = 0.0133333 (at node 3)
Accepted flit rate average= 0.0102083
	minimum = 0 (at node 0)
	maximum = 0.163333 (at node 12)
Injected packet length average = 1
Accepted packet length average = 1
Total in-flight flits = 2 (2 measured)
latency change    = 0.0674504
throughput change = 0.0142857
Class 0:
Packet latency average = 33.5065
	minimum = 7
	maximum = 146
Network latency average = 33.5065
	minimum = 7
	maximum = 146
Slowest packet = 36571
Flit latency average = 33.5478
	minimum = 7
	maximum = 146
Slowest flit = 36571
Fragmentation average = 0
	minimum = 0
	maximum = 0
Injected packet rate average = 0.00975
	minimum = 0.006 (at node 4)
	maximum = 0.0125 (at node 3)
Accepted packet rate average = 0.0098125
	minimum = 0 (at node 0)
	maximum = 0.157 (at node 12)
Injected flit rate average = 0.00975
	minimum = 0.006 (at node 4)
	maximum = 0.0125 (at node 3)
Accepted flit rate average= 0.0098125
	minimum = 0 (at node 0)
	maximum = 0.157 (at node 12)
Injected packet length average = 1
Accepted packet length average = 1
Total in-flight flits = 4 (4 measured)
latency change    = 0.0238445
throughput change = 0.0403397
Class 0:
Packet latency average = 33.5491
	minimum = 7
	maximum = 146
Network latency average = 33.5491
	minimum = 7
	maximum = 146
Slowest packet = 36571
Flit latency average = 33.5806
	minimum = 7
	maximum = 146
Slowest flit = 36571
Fragmentation average = 0
	minimum = 0
	maximum = 0
Injected packet rate average = 0.010075
	minimum = 0.0072 (at node 4)
	maximum = 0.014 (at node 3)
Accepted packet rate average = 0.010075
	minimum = 0 (at node 0)
	maximum = 0.1612 (at node 12)
Injected flit rate average = 0.010075
	minimum = 0.0072 (at node 4)
	maximum = 0.014 (at node 3)
Accepted flit rate average= 0.010075
	minimum = 0 (at node 0)
	maximum = 0.1612 (at node 12)
Injected packet length average = 1
Accepted packet length average = 1
Total in-flight flits = 6 (6 measured)
latency change    = 0.00127052
throughput change = 0.0260546
Class 0:
Packet latency average = 36.7789
	minimum = 7
	maximum = 177
Network latency average = 36.7789
	minimum = 7
	maximum = 177
Slowest packet = 36932
Flit latency average = 36.7651
	minimum = 7
	maximum = 177
Slowest flit = 36932
Fragmentation average = 0
	minimum = 0
	maximum = 0
Injected packet rate average = 0.0100208
	minimum = 0.00733333 (at node 10)
	maximum = 0.013 (at node 3)
Accepted packet rate average = 0.0100208
	minimum = 0 (at node 0)
	maximum = 0.160333 (at node 12)
Injected flit rate average = 0.0100208
	minimum = 0.00733333 (at node 10)
	maximum = 0.013 (at node 3)
Accepted flit rate average= 0.0100208
	minimum = 0 (at node 0)
	maximum = 0.160333 (at node 12)
Injected packet length average = 1
Accepted packet length average = 1
Total in-flight flits = 6 (6 measured)
latency change    = 0.0878173
throughput change = 0.00540541
Class 0:
Packet latency average = 36.9964
	minimum = 7
	maximum = 177
Network latency average = 36.9964
	minimum = 7
	maximum = 177
Slowest packet = 36932
Flit latency average = 36.9823
	minimum = 7
	maximum = 177
Slowest flit = 36932
Fragmentation average = 0
	minimum = 0
	maximum = 0
Injected packet rate average = 0.0101964
	minimum = 0.00742857 (at node 10)
	maximum = 0.0131429 (at node 6)
Accepted packet rate average = 0.0101071
	minimum = 0 (at node 0)
	maximum = 0.161714 (at node 12)
Injected flit rate average = 0.0101964
	minimum = 0.00742857 (at node 10)
	maximum = 0.0131429 (at node 6)
Accepted flit rate average= 0.0101071
	minimum = 0 (at node 0)
	maximum = 0.161714 (at node 12)
Injected packet length average = 1
Accepted packet length average = 1
Total in-flight flits = 11 (11 measured)
latency change    = 0.00587844
throughput change = 0.00853946
Draining all recorded packets ...
Draining remaining packets ...
Time taken is 5139 cycles
Class 0:
Packet latency average = 27.5366
	minimum = 7
	maximum = 95
Network latency average = 27.5366
	minimum = 7
	maximum = 95
Slowest packet = 37136
Flit latency average = 27.5366
	minimum = 7
	maximum = 95
Slowest flit = 37136
Fragmentation average = 0
	minimum = 0
	maximum = 0
Injected packet rate average = 0.01125
	minimum = 0.006 (at node 4)
	maximum = 0.02 (at node 9)
Accepted packet rate average = 0.01025
	minimum = 0 (at node 0)
	maximum = 0.164 (at node 12)
Injected flit rate average = 0.01125
	minimum = 0.006 (at node 4)
	maximum = 0.02 (at node 9)
Accepted flit rate average= 0.01025
	minimum = 0 (at node 0)
	maximum = 0.164 (at node 12)
Injected packet length average = 1
Accepted packet length average = 1
Total in-flight flits = 8 (0 measured)
latency change    = 1
throughput change = 1
Class 0:
Packet latency average = 29.1481
	minimum = 7
	maximum = 95
Network latency average = 29.1481
	minimum = 7
	maximum = 95
Slowest packet = 37136
Flit latency average = 29.1481
	minimum = 7
	maximum = 95
Slowest flit = 37136
Fragmentation average = 0
	minimum = 0
	maximum = 0
Injected packet rate average = 0.0108125
	minimum = 0.006 (at node 0)
	maximum = 0.017 (at node 9)
Accepted packet rate average = 0.010125
	minimum = 0 (at node 0)
	maximum = 0.162 (at node 12)
Injected flit rate average = 0.0108125
	minimum = 0.006 (at node 0)
	maximum = 0.017 (at node 9)
Accepted flit rate average= 0.010125
	minimum = 0 (at node 0)
	maximum = 0.162 (at node 12)
Injected packet length average = 1
Accepted packet length average = 1
Total in-flight flits = 11 (0 measured)
latency change    = 0.0552887
throughput change = 0.0123457
Class 0:
Packet latency average = 35.7556
	minimum = 7
	maximum = 125
Network latency average = 35.7556
	minimum = 7
	maximum = 125
Slowest packet = 37267
Flit latency average = 35.7556
	minimum = 7
	maximum = 125
Slowest flit = 37267
Fragmentation average = 0
	minimum = 0
	maximum = 0
Injected packet rate average = 0.010875
	minimum = 0.004 (at node 14)
	maximum = 0.02 (at node 8)
Accepted packet rate average = 0.01125
	minimum = 0 (at node 0)
	maximum = 0.18 (at node 12)
Injected flit rate average = 0.010875
	minimum = 0.004 (at node 14)
	maximum = 0.02 (at node 8)
Accepted flit rate average= 0.01125
	minimum = 0 (at node 0)
	maximum = 0.18 (at node 12)
Injected packet length average = 1
Accepted packet length average = 1
Total in-flight flits = 8 (0 measured)
latency change    = 0.184794
throughput change = 0.1
Warmed up ...Time used is 1500 cycles
Class 0:
Packet latency average = 36.0235
	minimum = 7
	maximum = 90
Network latency average = 36.0235
	minimum = 7
	maximum = 90
Slowest packet = 37414
Flit latency average = 37.9677
	minimum = 7
	maximum = 90
Slowest flit = 37414
Fragmentation average = 0
	minimum = 0
	maximum = 0
Injected packet rate average = 0.011125
	minimum = 0.002 (at node 4)
	maximum = 0.02 (at node 0)
Accepted packet rate average = 0.011625
	minimum = 0 (at node 0)
	maximum = 0.186 (at node 12)
Injected flit rate average = 0.011125
	minimum = 0.002 (at node 4)
	maximum = 0.02 (at node 0)
Accepted flit rate average= 0.011625
	minimum = 0 (at node 0)
	maximum = 0.186 (at node 12)
Injected packet length average = 1
Accepted packet length average = 1
Total in-flight flits = 4 (4 measured)
latency change    = 0.00743886
throughput change = 0.0322581
Class 0:
Packet latency average = 36.2771
	minimum = 7
	maximum = 111
Network latency average = 36.2771
	minimum = 7
	maximum = 111
Slowest packet = 37505
Flit latency average = 37.3046
	minimum = 7
	maximum = 111
Slowest flit = 37505
Fragmentation average = 0
	minimum = 0
	maximum = 0
Injected packet rate average = 0.0108125
	minimum = 0.006 (at node 14)
	maximum = 0.015 (at node 15)
Accepted packet rate average = 0.010875
	minimum = 0 (at node 0)
	maximum = 0.174 (at node 12)
Injected flit rate average = 0.0108125
	minimum = 0.006 (at node 14)
	maximum = 0.015 (at node 15)
Accepted flit rate average= 0.010875
	minimum = 0 (at node 0)
	maximum = 0.174 (at node 12)
Injected packet length average = 1
Accepted packet length average = 1
Total in-flight flits = 7 (7 measured)
latency change    = 0.00699006
throughput change = 0.0689655
Class 0:
Packet latency average = 38.1985
	minimum = 7
	maximum = 148
Network latency average = 38.1985
	minimum = 7
	maximum = 148
Slowest packet = 37543
Flit latency average = 38.8037
	minimum = 7
	maximum = 148
Slowest flit = 37543
Fragmentation average = 0
	minimum = 0
	maximum = 0
Injected packet rate average = 0.0113333
	minimum = 0.00533333 (at node 11)
	maximum = 0.0166667 (at node 15)
Accepted packet rate average = 0.01125
	minimum = 0 (at node 0)
	maximum = 0.18 (at node 12)
Injected flit rate average = 0.0113333
	minimum = 0.00533333 (at node 11)
	maximum = 0.0166667 (at node 15)
Accepted flit rate average= 0.01125
	minimum = 0 (at node 0)
	maximum = 0.18 (at node 12)
Injected packet length average = 1
Accepted packet length average = 1
Total in-flight flits = 10 (10 measured)
latency change    = 0.0502995
throughput change = 0.0333333
Class 0:
Packet latency average = 44.1628
	minimum = 7
	maximum = 212
Network latency average = 44.1628
	minimum = 7
	maximum = 212
Slowest packet = 37639
Flit latency average = 44.4915
	minimum = 7
	maximum = 212
Slowest flit = 37639
Fragmentation average = 0
	minimum = 0
	maximum = 0
Injected packet rate average = 0.0110312
	minimum = 0.0065 (at node 4)
	maximum = 0.016 (at node 0)
Accepted packet rate average = 0.011
	minimum = 0 (at node 0)
	maximum = 0.176 (at node 12)
Injected flit rate average = 0.0110312
	minimum = 0.0065 (at node 4)
	maximum = 0.016 (at node 0)
Accepted flit rate average= 0.011
	minimum = 0 (at node 0)
	maximum = 0.176 (at node 12)
Injected packet length average = 1
Accepted packet length average = 1
Total in-flight flits = 9 (9 measured)
latency change    = 0.135053
throughput change = 0.0227273
Class 0:
Packet latency average = 43.7193
	minimum = 7
	maximum = 212
Network latency average = 43.7193
	minimum = 7
	maximum = 212
Slowest packet = 37639
Flit latency average = 43.9909
	minimum = 7
	maximum = 212
Slowest flit = 37639
Fragmentation average = 0
	minimum = 0
	maximum = 0
Injected packet rate average = 0.011
	minimum = 0.0068 (at node 13)
	maximum = 0.0148 (at node 3)
Accepted packet rate average = 0.010975
	minimum = 0 (at node 0)
	maximum = 0.1756 (at node 12)
Injected flit rate average = 0.011
	minimum = 0.0068 (at node 13)
	maximum = 0.0148 (at node 3)
Accepted flit rate average= 0.010975
	minimum = 0 (at node 0)
	maximum = 0.1756 (at node 12)
Injected packet length average = 1
Accepted packet length average = 1
Total in-flight flits = 9 (9 measured)
latency change    = 0.010145
throughput change = 0.0022779
Class 0:
Packet latency average = 41.6647
	minimum = 7
	maximum = 212
Network latency average = 41.6647
	minimum = 7
	maximum = 212
Slowest packet = 37639
Flit latency average = 41.9222
	minimum = 7
	maximum = 212
Slowest flit = 37639
Fragmentation average = 0
	minimum = 0
	maximum = 0
Injected packet rate average = 0.011
	minimum = 0.00833333 (at node 13)
	maximum = 0.0143333 (at node 3)
Accepted packet rate average = 0.0109792
	minimum = 0 (at node 0)
	maximum = 0.175667 (at node 12)
Injected flit rate average = 0.011
	minimum = 0.00833333 (at node 13)
	maximum = 0.0143333 (at node 3)
Accepted flit rate average= 0.0109792
	minimum = 0 (at node 0)
	maximum = 0.175667 (at node 12)
Injected packet length average = 1
Accepted packet length average = 1
Total in-flight flits = 9 (9 measured)
latency change    = 0.0493107
throughput change = 0.000379507
Class 0:
Packet latency average = 42.1033
	minimum = 7
	maximum = 212
Network latency average = 42.1033
	minimum = 7
	maximum = 212
Slowest packet = 37639
Flit latency average = 42.3172
	minimum = 7
	maximum = 212
Slowest flit = 37639
Fragmentation average = 0
	minimum = 0
	maximum = 0
Injected packet rate average = 0.0109643
	minimum = 0.008 (at node 13)
	maximum = 0.0134286 (at node 15)
Accepted packet rate average = 0.0110357
	minimum = 0 (at node 0)
	maximum = 0.176571 (at node 12)
Injected flit rate average = 0.0109643
	minimum = 0.008 (at node 13)
	maximum = 0.0134286 (at node 15)
Accepted flit rate average= 0.0110357
	minimum = 0 (at node 0)
	maximum = 0.176571 (at node 12)
Injected packet length average = 1
Accepted packet length average = 1
Total in-flight flits = 4 (4 measured)
latency change    = 0.0104158
throughput change = 0.00512406
Draining all recorded packets ...
Draining remaining packets ...
Time taken is 5042 cycles
====== Overall Traffic Statistics ======
====== Traffic class 0 ======
Packet latency average = 36.7749 (50 samples)
	minimum = 7 (50 samples)
	maximum = 181.68 (50 samples)
Network latency average = 36.7749 (50 samples)
	minimum = 7 (50 samples)
	maximum = 181.68 (50 samples)
Flit latency average = 37.2331 (50 samples)
	minimum = 7 (50 samples)
	maximum = 188.78 (50 samples)
Fragmentation average = 0 (50 samples)
	minimum = 0 (50 samples)
	maximum = 0 (50 samples)
Injected packet rate average = 0.0100604 (50 samples)
	minimum = 0.00701429 (50 samples)
	maximum = 0.0132287 (50 samples)
Accepted packet rate average = 0.0100579 (50 samples)
	minimum = 0 (50 samples)
	maximum = 0.160927 (50 samples)
Injected flit rate average = 0.0100604 (50 samples)
	minimum = 0.00701429 (50 samples)
	maximum = 0.0132287 (50 samples)
Accepted flit rate average = 0.0100579 (50 samples)
	minimum = 0 (50 samples)
	maximum = 0.160927 (50 samples)
Injected packet size average = 1 (50 samples)
Accepted packet size average = 1 (50 samples)
Hops average = 4.98407 (50 samples)
Total run time 1.46106
