BEGIN Configuration File: /tmp/tmpqbu62eyj.cfg
topology = mesh;
k = 4;
n = 2;
routing_function = dor;
num_vcs = 4;
vc_buf_size = 4;
wait_for_tail_credit = 1;
vc_allocator = islip;
sw_allocator = islip;
alloc_iters = 1;
credit_delay = 2;
routing_delay = 1;
vc_alloc_delay = 1;
sw_alloc_delay = 1;
input_speedup = 2;
output_speedup = 1;
internal_speedup = 1.0;
traffic = uniform;
packet_size = 1;
sim_type = latency;
injection_rate = 0.1;
warmup_periods = 3;
sample_period = 500;
sim_count = 50;
seed = 2;
link_failures = 2;
fail_seed = 202;

END Configuration File: /tmp/tmpqbu62eyj.cfg
failure at node 4, channel 2 (1/2)
failure at node 13, channel 0 (2/2)
Class 0:
Packet latency average = 19.0414
	minimum = 7
	maximum = 41
Network latency average = 19.04
	minimum = 7
	maximum = 41
Slowest packet = 242
Flit latency average = 19.04
	minimum = 7
	maximum = 41
Slowest flit = 242
Fragmentation average = 0
	minimum = 0
	maximum = 0
Injected packet rate average = 0.094375
	minimum = 0.074 (at node 1)
	maximum = 0.118 (at node 7)
Accepted packet rate average = 0.090625
	minimum = 0.072 (at node 0)
	maximum = 0.112 (at node 10)
Injected flit rate average = 0.094375
	minimum = 0.074 (at node 1)
	maximum = 0.118 (at node 7)
Accepted flit rate average= 0.090625
	minimum = 0.072 (at node 0)
	maximum = 0.112 (at node 10)
Injected packet length average = 1
Accepted packet length average = 1
Total in-flight flits = 30 (0 measured)
latency change    = 1
throughput change = 1
Class 0:
Packet latency average = 19.2606
	minimum = 7
	maximum = 41
Network latency average = 19.2599
	minimum = 7
	maximum = 41
Slowest packet = 242
Flit latency average = 19.2599
	minimum = 7
	maximum = 41
Slowest flit = 242
Fragmentation average = 0
	minimum = 0
	maximum = 0
Injected packet rate average = 0.097875
	minimum = 0.077 (at node 9)
	maximum = 0.116 (at node 6)
Accepted packet rate average = 0.0959375
	minimum = 0.079 (at node 4)
	maximum = 0.113 (at node 1)
Injected flit rate average = 0.097875
	minimum = 0.077 (at node 9)
	maximum = 0.116 (at node 6)
Accepted flit rate average= 0.0959375
	minimum = 0.079 (at node 4)
	maximum = 0.113 (at node 1)
Injected packet length average = 1
Accepted packet length average = 1
Total in-flight flits = 31 (0 measured)
latency change    = 0.0113811
throughput change = 0.0553746
Class 0:
Packet latency average = 19.7866
	minimum = 7
	maximum = 40
Network latency average = 19.7866
	minimum = 7
	maximum = 40
Slowest packet = 1602
Flit latency average = 19.7866
	minimum = 7
	maximum = 40
Slowest flit = 1602
Fragmentation average = 0
	minimum = 0
	maximum = 0
Injected packet rate average = 0.094875
	minimum = 0.076 (at node 14)
	maximum = 0.116 (at node 4)
Accepted packet rate average = 0.0955
	minimum = 0.076 (at node 12)
	maximum = 0.12 (at node 15)
Injected flit rate average = 0.094875
	minimum = 0.076 (at node 14)
	maximum = 0.116 (at node 4)
Accepted flit rate average= 0.0955
	minimum = 0.076 (at node 12)
	maximum = 0.12 (at node 15)
Injected packet length average = 1
Accepted packet length average = 1
Total in-flight flits = 26 (0 measured)
latency change    = 0.0265868
throughput change = 0.00458115
Warmed up ...Time used is 1500 cycles
Class 0:
Packet latency average = 19.5
	minimum = 7
	maximum = 38
Network latency average = 19.4976
	minimum = 7
	maximum = 38
Slowest packet = 2439
Flit latency average = 19.6349
	minimum = 7
	maximum = 38
Slowest flit = 2439
Fragmentation average = 0
	minimum = 0
	maximum = 0
Injected packet rate average = 0.10825
	minimum = 0.084 (at node 6)
	maximum = 0.15 (at node 10)
Accepted packet rate average = 0.1075
	minimum = 0.082 (at node 9)
	maximum = 0.126 (at node 15)
Injected flit rate average = 0.10825
	minimum = 0.084 (at node 6)
	maximum = 0.15 (at node 10)
Accepted flit rate average= 0.1075
	minimum = 0.082 (at node 9)
	maximum = 0.126 (at node 15)
Injected packet length average = 1
Accepted packet length average = 1
Total in-flight flits = 32 (32 measured)
latency change    = 0.0147
throughput change = 0.111628
Class 0:
Packet latency average = 19.3809
	minimum = 7
	maximum = 38
Network latency average = 19.3797
	minimum = 7
	maximum = 38
Slowest packet = 2439
Flit latency average = 19.4531
	minimum = 7
	maximum = 38
Slowest flit = 2439
Fragmentation average = 0
	minimum = 0
	maximum = 0
Injected packet rate average = 0.103438
	minimum = 0.083 (at node 6)
	maximum = 0.133 (at node 10)
Accepted packet rate average = 0.103188
	minimum = 0.078 (at node 9)
	maximum = 0.118 (at node 0)
Injected flit rate average = 0.103438
	minimum = 0.083 (at node 6)
	maximum = 0.133 (at node 10)
Accepted flit rate average= 0.103188
	minimum = 0.078 (at node 9)
	maximum = 0.118 (at node 0)
Injected packet length average = 1
Accepted packet length average = 1
Total in-flight flits = 30 (30 measured)
latency change    = 0.00614403
throughput change = 0.0417929
Class 0:
Packet latency average = 19.3748
	minimum = 7
	maximum = 38
Network latency average = 19.374
	minimum = 7
	maximum = 38
Slowest packet = 2439
Flit latency average = 19.4239
	minimum = 7
	maximum = 38
Slowest flit = 2439
Fragmentation average = 0
	minimum = 0
	maximum = 0
Injected packet rate average = 0.101625
	minimum = 0.0853333 (at node 6)
	maximum = 0.129333 (at node 10)
Accepted packet rate average = 0.10125
	minimum = 0.09 (at node 14)
	maximum = 0.126667 (at node 0)
Injected flit rate average = 0.101625
	minimum = 0.0853333 (at node 6)
	maximum = 0.129333 (at node 10)
Accepted flit rate average= 0.10125
	minimum = 0.09 (at node 14)
	maximum = 0.126667 (at node 0)
Injected packet length average = 1
Accepted packet length average = 1
Total in-flight flits = 35 (35 measured)
latency change    = 0.000316445
throughput change = 0.0191358
Class 0:
Packet latency average = 19.3293
	minimum = 7
	maximum = 38
Network latency average = 19.3287
	minimum = 7
	maximum = 38
Slowest packet = 2439
Flit latency average = 19.3663
	minimum = 7
	maximum = 38
Slowest flit = 2439
Fragmentation average = 0
	minimum = 0
	maximum = 0
Injected packet rate average = 0.101719
	minimum = 0.091 (at node 1)
	maximum = 0.1305 (at node 10)
Accepted packet rate average = 0.101594
	minimum = 0.089 (at node 14)
	maximum = 0.122 (at node 0)
Injected flit rate average = 0.101719
	minimum = 0.091 (at node 1)
	maximum = 0.1305 (at node 10)
Accepted flit rate average= 0.101594
	minimum = 0.089 (at node 14)
	maximum = 0.122 (at node 0)
Injected packet length average = 1
Accepted packet length average = 1
Total in-flight flits = 30 (30 measured)
latency change    = 0.00235341
throughput change = 0.00338357
Draining all recorded packets ...
Draining remaining packets ...
Time taken is 3561 cycles
Class 0:
Packet latency average = 19.2773
	minimum = 7
	maximum = 39
Network latency average = 19.2736
	minimum = 7
	maximum = 39
Slowest packet = 5785
Flit latency average = 19.2736
	minimum = 7
	maximum = 39
Slowest flit = 5785
Fragmentation average = 0
	minimum = 0
	maximum = 0
Injected packet rate average = 0.105625
	minimum = 0.074 (at node 1)
	maximum = 0.128 (at node 15)
Accepted packet rate average = 0.101875
	minimum = 0.086 (at node 6)
	maximum = 0.122 (at node 10)
Injected flit rate average = 0.105625
	minimum = 0.074 (at node 1)
	maximum = 0.128 (at node 15)
Accepted flit rate average= 0.101875
	minimum = 0.086 (at node 6)
	maximum = 0.122 (at node 10)
Injected packet length average = 1
Accepted packet length average = 1
Total in-flight flits = 30 (0 measured)
latency change    = 1
throughput change = 1
Class 0:
Packet latency average = 19.5545
	minimum = 7
	maximum = 39
Network latency average = 19.5509
	minimum = 7
	maximum = 39
Slowest packet = 5785
Flit latency average = 19.5509
	minimum = 7
	maximum = 39
Slowest flit = 5785
Fragmentation average = 0
	minimum = 0
	maximum = 0
Injected packet rate average = 0.104688
	minimum = 0.088 (at node 14)
	maximum = 0.12 (at node 13)
Accepted packet rate average = 0.103125
	minimum = 0.084 (at node 6)
	maximum = 0.117 (at node 4)
Injected flit rate average = 0.104688
	minimum = 0.088 (at node 14)
	maximum = 0.12 (at node 13)
Accepted flit rate average= 0.103125
	minimum = 0.084 (at node 6)
	maximum = 0.117 (at node 4)
Injected packet length average = 1
Accepted packet length average = 1
Total in-flight flits = 25 (0 measured)
latency change    = 0.014178
throughput change = 0.0121212
Class 0:
Packet latency average = 19.5591
	minimum = 7
	maximum = 38
Network latency average = 19.5591
	minimum = 7
	maximum = 38
Slowest packet = 8041
Flit latency average = 19.5591
	minimum = 7
	maximum = 38
Slowest flit = 8041
Fragmentation average = 0
	minimum = 0
	maximum = 0
Injected packet rate average = 0.10525
	minimum = 0.07 (at node 0)
	maximum = 0.136 (at node 8)
Accepted packet rate average = 0.104625
	minimum = 0.078 (at node 7)
	maximum = 0.134 (at node 10)
Injected flit rate average = 0.10525
	minimum = 0.07 (at node 0)
	maximum = 0.136 (at node 8)
Accepted flit rate average= 0.104625
	minimum = 0.078 (at node 7)
	maximum = 0.134 (at node 10)
Injected packet length average = 1
Accepted packet length average = 1
Total in-flight flits = 30 (0 measured)
latency change    = 0.000234894
throughput change = 0.0143369
Warmed up ...Time used is 1500 cycles
Class 0:
Packet latency average = 19.6335
	minimum = 7
	maximum = 38
Network latency average = 19.631
	minimum = 7
	maximum = 38
Slowest packet = 8453
Flit latency average = 19.7863
	minimum = 7
	maximum = 38
Slowest flit = 8453
Fragmentation average = 0
	minimum = 0
	maximum = 0
Injected packet rate average = 0.100875
	minimum = 0.068 (at node 11)
	maximum = 0.142 (at node 1)
Accepted packet rate average = 0.100625
	minimum = 0.072 (at node 2)
	maximum = 0.116 (at node 4)
Injected flit rate average = 0.100875
	minimum = 0.068 (at node 11)
	maximum = 0.142 (at node 1)
Accepted flit rate average= 0.100625
	minimum = 0.072 (at node 2)
	maximum = 0.116 (at node 4)
Injected packet length average = 1
Accepted packet length average = 1
Total in-flight flits = 32 (32 measured)
latency change    = 0.00378987
throughput change = 0.0397516
Class 0:
Packet latency average = 19.6925
	minimum = 7
	maximum = 38
Network latency average = 19.6899
	minimum = 7
	maximum = 38
Slowest packet = 8453
Flit latency average = 19.7681
	minimum = 7
	maximum = 38
Slowest flit = 8453
Fragmentation average = 0
	minimum = 0
	maximum = 0
Injected packet rate average = 0.0984375
	minimum = 0.075 (at node 11)
	maximum = 0.115 (at node 1)
Accepted packet rate average = 0.098625
	minimum = 0.086 (at node 0)
	maximum = 0.115 (at node 4)
Injected flit rate average = 0.0984375
	minimum = 0.075 (at node 11)
	maximum = 0.115 (at node 1)
Accepted flit rate average= 0.098625
	minimum = 0.086 (at node 0)
	maximum = 0.115 (at node 4)
Injected packet length average = 1
Accepted packet length average = 1
Total in-flight flits = 27 (27 measured)
latency change    = 0.00299393
throughput change = 0.0202788
Class 0:
Packet latency average = 19.6321
	minimum = 7
	maximum = 38
Network latency average = 19.6304
	minimum = 7
	maximum = 38
Slowest packet = 8453
Flit latency average = 19.6833
	minimum = 7
	maximum = 38
Slowest flit = 8453
Fragmentation average = 0
	minimum = 0
	maximum = 0
Injected packet rate average = 0.098125
	minimum = 0.076 (at node 12)
	maximum = 0.108 (at node 3)
Accepted packet rate average = 0.0984167
	minimum = 0.0813333 (at node 0)
	maximum = 0.115333 (at node 4)
Injected flit rate average = 0.098125
	minimum = 0.076 (at node 12)
	maximum = 0.108 (at node 3)
Accepted flit rate average= 0.0984167
	minimum = 0.0813333 (at node 0)
	maximum = 0.115333 (at node 4)
Injected packet length average = 1
Accepted packet length average = 1
Total in-flight flits = 23 (23 measured)
latency change    = 0.00307818
throughput change = 0.00211685
Draining all recorded packets ...
Draining remaining packets ...
Time taken is 3052 cycles
Class 0:
Packet latency average = 19.1343
	minimum = 7
	maximum = 39
Network latency average = 19.133
	minimum = 7
	maximum = 39
Slowest packet = 10944
Flit latency average = 19.133
	minimum = 7
	maximum = 39
Slowest flit = 10944
Fragmentation average = 0
	minimum = 0
	maximum = 0
Injected packet rate average = 0.0985
	minimum = 0.076 (at node 4)
	maximum = 0.124 (at node 3)
Accepted packet rate average = 0.094
	minimum = 0.068 (at node 7)
	maximum = 0.116 (at node 2)
Injected flit rate average = 0.0985
	minimum = 0.076 (at node 4)
	maximum = 0.124 (at node 3)
Accepted flit rate average= 0.094
	minimum = 0.068 (at node 7)
	maximum = 0.116 (at node 2)
Injected packet length average = 1
Accepted packet length average = 1
Total in-flight flits = 36 (0 measured)
latency change    = 1
throughput change = 1
Class 0:
Packet latency average = 19.5287
	minimum = 7
	maximum = 39
Network latency average = 19.5268
	minimum = 7
	maximum = 39
Slowest packet = 10944
Flit latency average = 19.5268
	minimum = 7
	maximum = 39
Slowest flit = 10944
Fragmentation average = 0
	minimum = 0
	maximum = 0
Injected packet rate average = 0.100875
	minimum = 0.085 (at node 4)
	maximum = 0.121 (at node 3)
Accepted packet rate average = 0.0990625
	minimum = 0.081 (at node 7)
	maximum = 0.116 (at node 15)
Injected flit rate average = 0.100875
	minimum = 0.085 (at node 4)
	maximum = 0.121 (at node 3)
Accepted flit rate average= 0.0990625
	minimum = 0.081 (at node 7)
	maximum = 0.116 (at node 15)
Injected packet length average = 1
Accepted packet length average = 1
Total in-flight flits = 29 (0 measured)
latency change    = 0.0201958
throughput change = 0.0511041
Class 0:
Packet latency average = 19.7878
	minimum = 7
	maximum = 38
Network latency average = 19.7878
	minimum = 7
	maximum = 38
Slowest packet = 12758
Flit latency average = 19.7878
	minimum = 7
	maximum = 38
Slowest flit = 12758
Fragmentation average = 0
	minimum = 0
	maximum = 0
Injected packet rate average = 0.098625
	minimum = 0.076 (at node 6)
	maximum = 0.124 (at node 4)
Accepted packet rate average = 0.098375
	minimum = 0.074 (at node 9)
	maximum = 0.122 (at node 11)
Injected flit rate average = 0.098625
	minimum = 0.076 (at node 6)
	maximum = 0.124 (at node 4)
Accepted flit rate average= 0.098375
	minimum = 0.074 (at node 9)
	maximum = 0.122 (at node 11)
Injected packet length average = 1
Accepted packet length average = 1
Total in-flight flits = 31 (0 measured)
latency change    = 0.0130937
throughput change = 0.00698856
Warmed up ...Time used is 1500 cycles
Class 0:
Packet latency average = 19.9013
	minimum = 7
	maximum = 38
Network latency average = 19.9013
	minimum = 7
	maximum = 38
Slowest packet = 12941
Flit latency average = 20.1176
	minimum = 7
	maximum = 38
Slowest flit = 12941
Fragmentation average = 0
	minimum = 0
	maximum = 0
Injected packet rate average = 0.099
	minimum = 0.074 (at node 5)
	maximum = 0.124 (at node 0)
Accepted packet rate average = 0.098875
	minimum = 0.078 (at node 2)
	maximum = 0.12 (at node 14)
Injected flit rate average = 0.099
	minimum = 0.074 (at node 5)
	maximum = 0.124 (at node 0)
Accepted flit rate average= 0.098875
	minimum = 0.078 (at node 2)
	maximum = 0.12 (at node 14)
Injected packet length average = 1
Accepted packet length average = 1
Total in-flight flits = 32 (32 measured)
latency change    = 0.00570384
throughput change = 0.00505689
Class 0:
Packet latency average = 19.577
	minimum = 7
	maximum = 38
Network latency average = 19.5764
	minimum = 7
	maximum = 38
Slowest packet = 12941
Flit latency average = 19.6923
	minimum = 7
	maximum = 38
Slowest flit = 12941
Fragmentation average = 0
	minimum = 0
	maximum = 0
Injected packet rate average = 0.09775
	minimum = 0.077 (at node 5)
	maximum = 0.112 (at node 15)
Accepted packet rate average = 0.0976875
	minimum = 0.083 (at node 2)
	maximum = 0.115 (at node 11)
Injected flit rate average = 0.09775
	minimum = 0.077 (at node 5)
	maximum = 0.112 (at node 15)
Accepted flit rate average= 0.0976875
	minimum = 0.083 (at node 2)
	maximum = 0.115 (at node 11)
Injected packet length average = 1
Accepted packet length average = 1
Total in-flight flits = 32 (32 measured)
latency change    = 0.0165649
throughput change = 0.0121561
Class 0:
Packet latency average = 19.7615
	minimum = 7
	maximum = 40
Network latency average = 19.7607
	minimum = 7
	maximum = 40
Slowest packet = 14935
Flit latency average = 19.8345
	minimum = 7
	maximum = 40
Slowest flit = 14935
Fragmentation average = 0
	minimum = 0
	maximum = 0
Injected packet rate average = 0.0987083
	minimum = 0.0853333 (at node 5)
	maximum = 0.111333 (at node 3)
Accepted packet rate average = 0.0989583
	minimum = 0.088 (at node 5)
	maximum = 0.109333 (at node 14)
Injected flit rate average = 0.0987083
	minimum = 0.0853333 (at node 5)
	maximum = 0.111333 (at node 3)
Accepted flit rate average= 0.0989583
	minimum = 0.088 (at node 5)
	maximum = 0.109333 (at node 14)
Injected packet length average = 1
Accepted packet length average = 1
Total in-flight flits = 25 (25 measured)
latency change    = 0.00933609
throughput change = 0.0128421
Draining all recorded packets ...
Draining remaining packets ...
Time taken is 3053 cycles
Class 0:
Packet latency average = 19.4116
	minimum = 7
	maximum = 38
Network latency average = 19.4116
	minimum = 7
	maximum = 38
Slowest packet = 15746
Flit latency average = 19.4116
	minimum = 7
	maximum = 38
Slowest flit = 15746
Fragmentation average = 0
	minimum = 0
	maximum = 0
Injected packet rate average = 0.10075
	minimum = 0.068 (at node 3)
	maximum = 0.124 (at node 0)
Accepted packet rate average = 0.096875
	minimum = 0.076 (at node 3)
	maximum = 0.116 (at node 5)
Injected flit rate average = 0.10075
	minimum = 0.068 (at node 3)
	maximum = 0.124 (at node 0)
Accepted flit rate average= 0.096875
	minimum = 0.076 (at node 3)
	maximum = 0.116 (at node 5)
Injected packet length average = 1
Accepted packet length average = 1
Total in-flight flits = 31 (0 measured)
latency change    = 1
throughput change = 1
Class 0:
Packet latency average = 19.7151
	minimum = 7
	maximum = 38
Network latency average = 19.7151
	minimum = 7
	maximum = 38
Slowest packet = 15746
Flit latency average = 19.7151
	minimum = 7
	maximum = 38
Slowest flit = 15746
Fragmentation average = 0
	minimum = 0
	maximum = 0
Injected packet rate average = 0.102875
	minimum = 0.076 (at node 3)
	maximum = 0.119 (at node 7)
Accepted packet rate average = 0.10025
	minimum = 0.079 (at node 9)
	maximum = 0.123 (at node 7)
Injected flit rate average = 0.102875
	minimum = 0.076 (at node 3)
	maximum = 0.119 (at node 7)
Accepted flit rate average= 0.10025
	minimum = 0.079 (at node 9)
	maximum = 0.123 (at node 7)
Injected packet length average = 1
Accepted packet length average = 1
Total in-flight flits = 42 (0 measured)
latency change    = 0.015393
throughput change = 0.0336658
Class 0:
Packet latency average = 19.6386
	minimum = 7
	maximum = 39
Network latency average = 19.6386
	minimum = 7
	maximum = 39
Slowest packet = 16948
Flit latency average = 19.6386
	minimum = 7
	maximum = 39
Slowest flit = 16948
Fragmentation average = 0
	minimum = 0
	maximum = 0
Injected packet rate average = 0.098875
	minimum = 0.08 (at node 7)
	maximum = 0.118 (at node 12)
Accepted packet rate average = 0.099625
	minimum = 0.072 (at node 12)
	maximum = 0.128 (at node 14)
Injected flit rate average = 0.098875
	minimum = 0.08 (at node 7)
	maximum = 0.118 (at node 12)
Accepted flit rate average= 0.099625
	minimum = 0.072 (at node 12)
	maximum = 0.128 (at node 14)
Injected packet length average = 1
Accepted packet length average = 1
Total in-flight flits = 36 (0 measured)
latency change    = 0.00389245
throughput change = 0.00627353
Warmed up ...Time used is 1500 cycles
Class 0:
Packet latency average = 19.6247
	minimum = 7
	maximum = 41
Network latency average = 19.6234
	minimum = 7
	maximum = 41
Slowest packet = 17796
Flit latency average = 19.7145
	minimum = 7
	maximum = 41
Slowest flit = 17796
Fragmentation average = 0
	minimum = 0
	maximum = 0
Injected packet rate average = 0.102625
	minimum = 0.084 (at node 5)
	maximum = 0.122 (at node 1)
Accepted packet rate average = 0.10375
	minimum = 0.08 (at node 5)
	maximum = 0.12 (at node 9)
Injected flit rate average = 0.102625
	minimum = 0.084 (at node 5)
	maximum = 0.122 (at node 1)
Accepted flit rate average= 0.10375
	minimum = 0.08 (at node 5)
	maximum = 0.12 (at node 9)
Injected packet length average = 1
Accepted packet length average = 1
Total in-flight flits = 27 (27 measured)
latency change    = 0.000711338
throughput change = 0.039759
Class 0:
Packet latency average = 19.7508
	minimum = 7
	maximum = 41
Network latency average = 19.7502
	minimum = 7
	maximum = 41
Slowest packet = 17796
Flit latency average = 19.7932
	minimum = 7
	maximum = 41
Slowest flit = 17796
Fragmentation average = 0
	minimum = 0
	maximum = 0
Injected packet rate average = 0.102375
	minimum = 0.091 (at node 15)
	maximum = 0.114 (at node 14)
Accepted packet rate average = 0.103063
	minimum = 0.079 (at node 5)
	maximum = 0.117 (at node 6)
Injected flit rate average = 0.102375
	minimum = 0.091 (at node 15)
	maximum = 0.114 (at node 14)
Accepted flit rate average= 0.103063
	minimum = 0.079 (at node 5)
	maximum = 0.117 (at node 6)
Injected packet length average = 1
Accepted packet length average = 1
Total in-flight flits = 25 (25 measured)
latency change    = 0.00638404
throughput change = 0.00667071
Class 0:
Packet latency average = 19.6822
	minimum = 7
	maximum = 41
Network latency average = 19.6814
	minimum = 7
	maximum = 41
Slowest packet = 17796
Flit latency average = 19.7115
	minimum = 7
	maximum = 41
Slowest flit = 17796
Fragmentation average = 0
	minimum = 0
	maximum = 0
Injected packet rate average = 0.101625
	minimum = 0.0933333 (at node 2)
	maximum = 0.107333 (at node 9)
Accepted packet rate average = 0.101667
	minimum = 0.0806667 (at node 2)
	maximum = 0.116667 (at node 7)
Injected flit rate average = 0.101625
	minimum = 0.0933333 (at node 2)
	maximum = 0.107333 (at node 9)
Accepted flit rate average= 0.101667
	minimum = 0.0806667 (at node 2)
	maximum = 0.116667 (at node 7)
Injected packet length average = 1
Accepted packet length average = 1
Total in-flight flits = 35 (35 measured)
latency change    = 0.0034843
throughput change = 0.0137295
Draining all recorded packets ...
Draining remaining packets ...
Time taken is 3067 cycles
Class 0:
Packet latency average = 19.6432
	minimum = 7
	maximum = 38
Network latency average = 19.6432
	minimum = 7
	maximum = 38
Slowest packet = 20738
Flit latency average = 19.6432
	minimum = 7
	maximum = 38
Slowest flit = 20738
Fragmentation average = 0
	minimum = 0
	maximum = 0
Injected packet rate average = 0.09375
	minimum = 0.078 (at node 11)
	maximum = 0.116 (at node 0)
Accepted packet rate average = 0.090375
	minimum = 0.066 (at node 1)
	maximum = 0.126 (at node 13)
Injected flit rate average = 0.09375
	minimum = 0.078 (at node 11)
	maximum = 0.116 (at node 0)
Accepted flit rate average= 0.090375
	minimum = 0.066 (at node 1)
	maximum = 0.126 (at node 13)
Injected packet length average = 1
Accepted packet length average = 1
Total in-flight flits = 27 (0 measured)
latency change    = 1
throughput change = 1
Class 0:
Packet latency average = 19.5505
	minimum = 7
	maximum = 41
Network latency average = 19.5505
	minimum = 7
	maximum = 41
Slowest packet = 21216
Flit latency average = 19.5505
	minimum = 7
	maximum = 41
Slowest flit = 21216
Fragmentation average = 0
	minimum = 0
	maximum = 0
Injected packet rate average = 0.096625
	minimum = 0.083 (at node 11)
	maximum = 0.107 (at node 15)
Accepted packet rate average = 0.09525
	minimum = 0.067 (at node 2)
	maximum = 0.119 (at node 14)
Injected flit rate average = 0.096625
	minimum = 0.083 (at node 11)
	maximum = 0.107 (at node 15)
Accepted flit rate average= 0.09525
	minimum = 0.067 (at node 2)
	maximum = 0.119 (at node 14)
Injected packet length average = 1
Accepted packet length average = 1
Total in-flight flits = 22 (0 measured)
latency change    = 0.00473791
throughput change = 0.0511811
Class 0:
Packet latency average = 19.8766
	minimum = 7
	maximum = 40
Network latency average = 19.8753
	minimum = 7
	maximum = 40
Slowest packet = 22142
Flit latency average = 19.8753
	minimum = 7
	maximum = 40
Slowest flit = 22142
Fragmentation average = 0
	minimum = 0
	maximum = 0
Injected packet rate average = 0.099875
	minimum = 0.082 (at node 0)
	maximum = 0.112 (at node 7)
Accepted packet rate average = 0.09925
	minimum = 0.07 (at node 9)
	maximum = 0.142 (at node 15)
Injected flit rate average = 0.099875
	minimum = 0.082 (at node 0)
	maximum = 0.112 (at node 7)
Accepted flit rate average= 0.09925
	minimum = 0.07 (at node 9)
	maximum = 0.142 (at node 15)
Injected packet length average = 1
Accepted packet length average = 1
Total in-flight flits = 27 (0 measured)
latency change    = 0.0164037
throughput change = 0.0403023
Warmed up ...Time used is 1500 cycles
Class 0:
Packet latency average = 19.3912
	minimum = 7
	maximum = 38
Network latency average = 19.3912
	minimum = 7
	maximum = 38
Slowest packet = 23088
Flit latency average = 19.5129
	minimum = 7
	maximum = 38
Slowest flit = 23088
Fragmentation average = 0
	minimum = 0
	maximum = 0
Injected packet rate average = 0.097375
	minimum = 0.072 (at node 14)
	maximum = 0.124 (at node 0)
Accepted packet rate average = 0.097
	minimum = 0.076 (at node 1)
	maximum = 0.134 (at node 2)
Injected flit rate average = 0.097375
	minimum = 0.072 (at node 14)
	maximum = 0.124 (at node 0)
Accepted flit rate average= 0.097
	minimum = 0.076 (at node 1)
	maximum = 0.134 (at node 2)
Injected packet length average = 1
Accepted packet length average = 1
Total in-flight flits = 30 (30 measured)
latency change    = 0.0250313
throughput change = 0.0231959
Class 0:
Packet latency average = 19.6836
	minimum = 7
	maximum = 38
Network latency average = 19.683
	minimum = 7
	maximum = 38
Slowest packet = 23088
Flit latency average = 19.7377
	minimum = 7
	maximum = 38
Slowest flit = 23088
Fragmentation average = 0
	minimum = 0
	maximum = 0
Injected packet rate average = 0.0988125
	minimum = 0.086 (at node 3)
	maximum = 0.119 (at node 11)
Accepted packet rate average = 0.098875
	minimum = 0.086 (at node 3)
	maximum = 0.12 (at node 9)
Injected flit rate average = 0.0988125
	minimum = 0.086 (at node 3)
	maximum = 0.119 (at node 11)
Accepted flit rate average= 0.098875
	minimum = 0.086 (at node 3)
	maximum = 0.12 (at node 9)
Injected packet length average = 1
Accepted packet length average = 1
Total in-flight flits = 26 (26 measured)
latency change    = 0.0148557
throughput change = 0.0189633
Class 0:
Packet latency average = 19.6516
	minimum = 7
	maximum = 38
Network latency average = 19.6511
	minimum = 7
	maximum = 38
Slowest packet = 23088
Flit latency average = 19.6874
	minimum = 7
	maximum = 38
Slowest flit = 23088
Fragmentation average = 0
	minimum = 0
	maximum = 0
Injected packet rate average = 0.100333
	minimum = 0.0913333 (at node 3)
	maximum = 0.114 (at node 11)
Accepted packet rate average = 0.100375
	minimum = 0.0846667 (at node 3)
	maximum = 0.116667 (at node 2)
Injected flit rate average = 0.100333
	minimum = 0.0913333 (at node 3)
	maximum = 0.114 (at node 11)
Accepted flit rate average= 0.100375
	minimum = 0.0846667 (at node 3)
	maximum = 0.116667 (at node 2)
Injected packet length average = 1
Accepted packet length average = 1
Total in-flight flits = 26 (26 measured)
latency change    = 0.00163081
throughput change = 0.014944
Draining all recorded packets ...
Draining remaining packets ...
Time taken is 3053 cycles
Class 0:
Packet latency average = 19.2404
	minimum = 7
	maximum = 39
Network latency average = 19.2392
	minimum = 7
	maximum = 39
Slowest packet = 25190
Flit latency average = 19.2392
	minimum = 7
	maximum = 39
Slowest flit = 25190
Fragmentation average = 0
	minimum = 0
	maximum = 0
Injected packet rate average = 0.10675
	minimum = 0.082 (at node 13)
	maximum = 0.124 (at node 1)
Accepted packet rate average = 0.104
	minimum = 0.064 (at node 0)
	maximum = 0.126 (at node 13)
Injected flit rate average = 0.10675
	minimum = 0.082 (at node 13)
	maximum = 0.124 (at node 1)
Accepted flit rate average= 0.104
	minimum = 0.064 (at node 0)
	maximum = 0.126 (at node 13)
Injected packet length average = 1
Accepted packet length average = 1
Total in-flight flits = 22 (0 measured)
latency change    = 1
throughput change = 1
Class 0:
Packet latency average = 19.4621
	minimum = 7
	maximum = 43
Network latency average = 19.4615
	minimum = 7
	maximum = 43
Slowest packet = 26431
Flit latency average = 19.4615
	minimum = 7
	maximum = 43
Slowest flit = 26431
Fragmentation average = 0
	minimum = 0
	maximum = 0
Injected packet rate average = 0.104688
	minimum = 0.095 (at node 10)
	maximum = 0.115 (at node 5)
Accepted packet rate average = 0.102375
	minimum = 0.087 (at node 15)
	maximum = 0.121 (at node 9)
Injected flit rate average = 0.104688
	minimum = 0.095 (at node 10)
	maximum = 0.115 (at node 5)
Accepted flit rate average= 0.102375
	minimum = 0.087 (at node 15)
	maximum = 0.121 (at node 9)
Injected packet length average = 1
Accepted packet length average = 1
Total in-flight flits = 37 (0 measured)
latency change    = 0.0113946
throughput change = 0.015873
Class 0:
Packet latency average = 19.5447
	minimum = 7
	maximum = 38
Network latency average = 19.5434
	minimum = 7
	maximum = 38
Slowest packet = 26846
Flit latency average = 19.5434
	minimum = 7
	maximum = 38
Slowest flit = 26846
Fragmentation average = 0
	minimum = 0
	maximum = 0
Injected packet rate average = 0.094375
	minimum = 0.08 (at node 13)
	maximum = 0.118 (at node 8)
Accepted packet rate average = 0.093625
	minimum = 0.07 (at node 8)
	maximum = 0.112 (at node 15)
Injected flit rate average = 0.094375
	minimum = 0.08 (at node 13)
	maximum = 0.118 (at node 8)
Accepted flit rate average= 0.093625
	minimum = 0.07 (at node 8)
	maximum = 0.112 (at node 15)
Injected packet length average = 1
Accepted packet length average = 1
Total in-flight flits = 43 (0 measured)
latency change    = 0.00422504
throughput change = 0.0934579
Warmed up ...Time used is 1500 cycles
Class 0:
Packet latency average = 19.552
	minimum = 7
	maximum = 38
Network latency average = 19.5493
	minimum = 7
	maximum = 38
Slowest packet = 27553
Flit latency average = 19.6352
	minimum = 7
	maximum = 38
Slowest flit = 27553
Fragmentation average = 0
	minimum = 0
	maximum = 0
Injected packet rate average = 0.096875
	minimum = 0.086 (at node 3)
	maximum = 0.12 (at node 6)
Accepted packet rate average = 0.098
	minimum = 0.066 (at node 8)
	maximum = 0.132 (at node 14)
Injected flit rate average = 0.096875
	minimum = 0.086 (at node 3)
	maximum = 0.12 (at node 6)
Accepted flit rate average= 0.098
	minimum = 0.066 (at node 8)
	maximum = 0.132 (at node 14)
Injected packet length average = 1
Accepted packet length average = 1
Total in-flight flits = 34 (34 measured)
latency change    = 0.00036981
throughput change = 0.0446429
Class 0:
Packet latency average = 19.7073
	minimum = 7
	maximum = 39
Network latency average = 19.706
	minimum = 7
	maximum = 39
Slowest packet = 28666
Flit latency average = 19.7432
	minimum = 7
	maximum = 39
Slowest flit = 28666
Fragmentation average = 0
	minimum = 0
	maximum = 0
Injected packet rate average = 0.101187
	minimum = 0.091 (at node 7)
	maximum = 0.117 (at node 4)
Accepted packet rate average = 0.10175
	minimum = 0.077 (at node 2)
	maximum = 0.122 (at node 6)
Injected flit rate average = 0.101187
	minimum = 0.091 (at node 7)
	maximum = 0.117 (at node 4)
Accepted flit rate average= 0.10175
	minimum = 0.077 (at node 2)
	maximum = 0.122 (at node 6)
Injected packet length average = 1
Accepted packet length average = 1
Total in-flight flits = 34 (34 measured)
latency change    = 0.00788028
throughput change = 0.036855
Class 0:
Packet latency average = 19.7154
	minimum = 7
	maximum = 39
Network latency average = 19.7146
	minimum = 7
	maximum = 39
Slowest packet = 28666
Flit latency average = 19.7396
	minimum = 7
	maximum = 39
Slowest flit = 28666
Fragmentation average = 0
	minimum = 0
	maximum = 0
Injected packet rate average = 0.09975
	minimum = 0.09 (at node 3)
	maximum = 0.112667 (at node 4)
Accepted packet rate average = 0.100333
	minimum = 0.082 (at node 13)
	maximum = 0.118 (at node 0)
Injected flit rate average = 0.09975
	minimum = 0.09 (at node 3)
	maximum = 0.112667 (at node 4)
Accepted flit rate average= 0.100333
	minimum = 0.082 (at node 13)
	maximum = 0.118 (at node 0)
Injected packet length average = 1
Accepted packet length average = 1
Total in-flight flits = 29 (29 measured)
latency change    = 0.000414796
throughput change = 0.0141196
Draining all recorded packets ...
Draining remaining packets ...
Time taken is 3057 cycles
Class 0:
Packet latency average = 19.411
	minimum = 7
	maximum = 39
Network latency average = 19.411
	minimum = 7
	maximum = 39
Slowest packet = 30379
Flit latency average = 19.411
	minimum = 7
	maximum = 39
Slowest flit = 30379
Fragmentation average = 0
	minimum = 0
	maximum = 0
Injected packet rate average = 0.09825
	minimum = 0.072 (at node 3)
	maximum = 0.122 (at node 1)
Accepted packet rate average = 0.0955
	minimum = 0.07 (at node 0)
	maximum = 0.112 (at node 7)
Injected flit rate average = 0.09825
	minimum = 0.072 (at node 3)
	maximum = 0.122 (at node 1)
Accepted flit rate average= 0.0955
	minimum = 0.07 (at node 0)
	maximum = 0.112 (at node 7)
Injected packet length average = 1
Accepted packet length average = 1
Total in-flight flits = 22 (0 measured)
latency change    = 1
throughput change = 1
Class 0:
Packet latency average = 19.4873
	minimum = 7
	maximum = 39
Network latency average = 19.4873
	minimum = 7
	maximum = 39
Slowest packet = 30379
Flit latency average = 19.4873
	minimum = 7
	maximum = 39
Slowest flit = 30379
Fragmentation average = 0
	minimum = 0
	maximum = 0
Injected packet rate average = 0.0980625
	minimum = 0.079 (at node 6)
	maximum = 0.115 (at node 12)
Accepted packet rate average = 0.0963125
	minimum = 0.082 (at node 5)
	maximum = 0.107 (at node 7)
Injected flit rate average = 0.0980625
	minimum = 0.079 (at node 6)
	maximum = 0.115 (at node 12)
Accepted flit rate average= 0.0963125
	minimum = 0.082 (at node 5)
	maximum = 0.107 (at node 7)
Injected packet length average = 1
Accepted packet length average = 1
Total in-flight flits = 28 (0 measured)
latency change    = 0.00391798
throughput change = 0.00843608
Class 0:
Packet latency average = 19.2912
	minimum = 7
	maximum = 41
Network latency average = 19.2899
	minimum = 7
	maximum = 41
Slowest packet = 32197
Flit latency average = 19.2899
	minimum = 7
	maximum = 41
Slowest flit = 32197
Fragmentation average = 0
	minimum = 0
	maximum = 0
Injected packet rate average = 0.099
	minimum = 0.072 (at node 15)
	maximum = 0.128 (at node 4)
Accepted packet rate average = 0.097875
	minimum = 0.06 (at node 14)
	maximum = 0.122 (at node 2)
Injected flit rate average = 0.099
	minimum = 0.072 (at node 15)
	maximum = 0.128 (at node 4)
Accepted flit rate average= 0.097875
	minimum = 0.06 (at node 14)
	maximum = 0.122 (at node 2)
Injected packet length average = 1
Accepted packet length average = 1
Total in-flight flits = 37 (0 measured)
latency change    = 0.0101683
throughput change = 0.0159642
Warmed up ...Time used is 1500 cycles
Class 0:
Packet latency average = 19.7122
	minimum = 7
	maximum = 38
Network latency average = 19.7108
	minimum = 7
	maximum = 38
Slowest packet = 32731
Flit latency average = 19.7851
	minimum = 7
	maximum = 38
Slowest flit = 32731
Fragmentation average = 0
	minimum = 0
	maximum = 0
Injected packet rate average = 0.096375
	minimum = 0.072 (at node 14)
	maximum = 0.114 (at node 10)
Accepted packet rate average = 0.097125
	minimum = 0.074 (at node 11)
	maximum = 0.114 (at node 9)
Injected flit rate average = 0.096375
	minimum = 0.072 (at node 14)
	maximum = 0.114 (at node 10)
Accepted flit rate average= 0.097125
	minimum = 0.074 (at node 11)
	maximum = 0.114 (at node 9)
Injected packet length average = 1
Accepted packet length average = 1
Total in-flight flits = 31 (31 measured)
latency change    = 0.0213561
throughput change = 0.00772201
Class 0:
Packet latency average = 19.8214
	minimum = 7
	maximum = 38
Network latency average = 19.8207
	minimum = 7
	maximum = 38
Slowest packet = 32731
Flit latency average = 19.8555
	minimum = 7
	maximum = 38
Slowest flit = 32731
Fragmentation average = 0
	minimum = 0
	maximum = 0
Injected packet rate average = 0.0966875
	minimum = 0.078 (at node 13)
	maximum = 0.115 (at node 3)
Accepted packet rate average = 0.0964375
	minimum = 0.082 (at node 11)
	maximum = 0.111 (at node 9)
Injected flit rate average = 0.0966875
	minimum = 0.078 (at node 13)
	maximum = 0.115 (at node 3)
Accepted flit rate average= 0.0964375
	minimum = 0.082 (at node 11)
	maximum = 0.111 (at node 9)
Injected packet length average = 1
Accepted packet length average = 1
Total in-flight flits = 41 (41 measured)
latency change    = 0.00551016
throughput change = 0.00712897
Class 0:
Packet latency average = 19.745
	minimum = 7
	maximum = 38
Network latency average = 19.7446
	minimum = 7
	maximum = 38
Slowest packet = 32731
Flit latency average = 19.7687
	minimum = 7
	maximum = 38
Slowest flit = 32731
Fragmentation average = 0
	minimum = 0
	maximum = 0
Injected packet rate average = 0.0978333
	minimum = 0.0853333 (at node 13)
	maximum = 0.108667 (at node 1)
Accepted packet rate average = 0.097625
	minimum = 0.084 (at node 3)
	maximum = 0.115333 (at node 14)
Injected flit rate average = 0.0978333
	minimum = 0.0853333 (at node 13)
	maximum = 0.108667 (at node 1)
Accepted flit rate average= 0.097625
	minimum = 0.084 (at node 3)
	maximum = 0.115333 (at node 14)
Injected packet length average = 1
Accepted packet length average = 1
Total in-flight flits = 42 (42 measured)
latency change    = 0.00386772
throughput change = 0.0121639
Draining all recorded packets ...
Draining remaining packets ...
Time taken is 3065 cycles
Class 0:
Packet latency average = 19.6801
	minimum = 7
	maximum = 38
Network latency average = 19.6801
	minimum = 7
	maximum = 38
Slowest packet = 34947
Flit latency average = 19.6801
	minimum = 7
	maximum = 38
Slowest flit = 34947
Fragmentation average = 0
	minimum = 0
	maximum = 0
Injected packet rate average = 0.1005
	minimum = 0.08 (at node 9)
	maximum = 0.12 (at node 2)
Accepted packet rate average = 0.0965
	minimum = 0.07 (at node 5)
	maximum = 0.116 (at node 8)
Injected flit rate average = 0.1005
	minimum = 0.08 (at node 9)
	maximum = 0.12 (at node 2)
Accepted flit rate average= 0.0965
	minimum = 0.07 (at node 5)
	maximum = 0.116 (at node 8)
Injected packet length average = 1
Accepted packet length average = 1
Total in-flight flits = 32 (0 measured)
latency change    = 1
throughput change = 1
Class 0:
Packet latency average = 19.8698
	minimum = 7
	maximum = 44
Network latency average = 19.8698
	minimum = 7
	maximum = 44
Slowest packet = 36171
Flit latency average = 19.8698
	minimum = 7
	maximum = 44
Slowest flit = 36171
Fragmentation average = 0
	minimum = 0
	maximum = 0
Injected packet rate average = 0.10175
	minimum = 0.089 (at node 7)
	maximum = 0.115 (at node 1)
Accepted packet rate average = 0.099375
	minimum = 0.076 (at node 5)
	maximum = 0.112 (at node 15)
Injected flit rate average = 0.10175
	minimum = 0.089 (at node 7)
	maximum = 0.115 (at node 1)
Accepted flit rate average= 0.099375
	minimum = 0.076 (at node 5)
	maximum = 0.112 (at node 15)
Injected packet length average = 1
Accepted packet length average = 1
Total in-flight flits = 38 (0 measured)
latency change    = 0.00955014
throughput change = 0.0289308
Class 0:
Packet latency average = 19.3983
	minimum = 7
	maximum = 42
Network latency average = 19.3983
	minimum = 7
	maximum = 42
Slowest packet = 36299
Flit latency average = 19.3983
	minimum = 7
	maximum = 42
Slowest flit = 36299
Fragmentation average = 0
	minimum = 0
	maximum = 0
Injected packet rate average = 0.099375
	minimum = 0.074 (at node 9)
	maximum = 0.118 (at node 5)
Accepted packet rate average = 0.100125
	minimum = 0.086 (at node 6)
	maximum = 0.126 (at node 3)
Injected flit rate average = 0.099375
	minimum = 0.074 (at node 9)
	maximum = 0.118 (at node 5)
Accepted flit rate average= 0.100125
	minimum = 0.086 (at node 6)
	maximum = 0.126 (at node 3)
Injected packet length average = 1
Accepted packet length average = 1
Total in-flight flits = 32 (0 measured)
latency change    = 0.0243094
throughput change = 0.00749064
Warmed up ...Time used is 1500 cycles
Class 0:
Packet latency average = 19.4216
	minimum = 7
	maximum = 38
Network latency average = 19.4216
	minimum = 7
	maximum = 38
Slowest packet = 37368
Flit latency average = 19.5654
	minimum = 7
	maximum = 38
Slowest flit = 37368
Fragmentation average = 0
	minimum = 0
	maximum = 0
Injected packet rate average = 0.10025
	minimum = 0.074 (at node 14)
	maximum = 0.122 (at node 15)
Accepted packet rate average = 0.10125
	minimum = 0.074 (at node 7)
	maximum = 0.13 (at node 14)
Injected flit rate average = 0.10025
	minimum = 0.074 (at node 14)
	maximum = 0.122 (at node 15)
Accepted flit rate average= 0.10125
	minimum = 0.074 (at node 7)
	maximum = 0.13 (at node 14)
Injected packet length average = 1
Accepted packet length average = 1
Total in-flight flits = 24 (24 measured)
latency change    = 0.00120184
throughput change = 0.0111111
Class 0:
Packet latency average = 19.2417
	minimum = 7
	maximum = 38
Network latency average = 19.2417
	minimum = 7
	maximum = 38
Slowest packet = 37368
Flit latency average = 19.318
	minimum = 7
	maximum = 38
Slowest flit = 37368
Fragmentation average = 0
	minimum = 0
	maximum = 0
Injected packet rate average = 0.0999375
	minimum = 0.078 (at node 2)
	maximum = 0.117 (at node 12)
Accepted packet rate average = 0.10025
	minimum = 0.083 (at node 7)
	maximum = 0.125 (at node 14)
Injected flit rate average = 0.0999375
	minimum = 0.078 (at node 2)
	maximum = 0.117 (at node 12)
Accepted flit rate average= 0.10025
	minimum = 0.083 (at node 7)
	maximum = 0.125 (at node 14)
Injected packet length average = 1
Accepted packet length average = 1
Total in-flight flits = 27 (27 measured)
latency change    = 0.00934758
throughput change = 0.00997506
Class 0:
Packet latency average = 19.3846
	minimum = 7
	maximum = 45
Network latency average = 19.3846
	minimum = 7
	maximum = 45
Slowest packet = 38889
Flit latency average = 19.4337
	minimum = 7
	maximum = 45
Slowest flit = 38889
Fragmentation average = 0
	minimum = 0
	maximum = 0
Injected packet rate average = 0.0995
	minimum = 0.0873333 (at node 5)
	maximum = 0.112667 (at node 12)
Accepted packet rate average = 0.0999167
	minimum = 0.0853333 (at node 13)
	maximum = 0.116 (at node 4)
Injected flit rate average = 0.0995
	minimum = 0.0873333 (at node 5)
	maximum = 0.112667 (at node 12)
Accepted flit rate average= 0.0999167
	minimum = 0.0853333 (at node 13)
	maximum = 0.116 (at node 4)
Injected packet length average = 1
Accepted packet length average = 1
Total in-flight flits = 22 (22 measured)
latency change    = 0.00737106
throughput change = 0.00333611
Draining all recorded packets ...
Draining remaining packets ...
Time taken is 3063 cycles
Class 0:
Packet latency average = 19.7507
	minimum = 7
	maximum = 39
Network latency average = 19.7507
	minimum = 7
	maximum = 39
Slowest packet = 40061
Flit latency average = 19.7507
	minimum = 7
	maximum = 39
Slowest flit = 40061
Fragmentation average = 0
	minimum = 0
	maximum = 0
Injected packet rate average = 0.09875
	minimum = 0.074 (at node 5)
	maximum = 0.12 (at node 0)
Accepted packet rate average = 0.09375
	minimum = 0.07 (at node 0)
	maximum = 0.112 (at node 9)
Injected flit rate average = 0.09875
	minimum = 0.074 (at node 5)
	maximum = 0.12 (at node 0)
Accepted flit rate average= 0.09375
	minimum = 0.07 (at node 0)
	maximum = 0.112 (at node 9)
Injected packet length average = 1
Accepted packet length average = 1
Total in-flight flits = 40 (0 measured)
latency change    = 1
throughput change = 1
Class 0:
Packet latency average = 19.543
	minimum = 7
	maximum = 39
Network latency average = 19.543
	minimum = 7
	maximum = 39
Slowest packet = 40061
Flit latency average = 19.543
	minimum = 7
	maximum = 39
Slowest flit = 40061
Fragmentation average = 0
	minimum = 0
	maximum = 0
Injected packet rate average = 0.09825
	minimum = 0.083 (at node 5)
	maximum = 0.121 (at node 8)
Accepted packet rate average = 0.096
	minimum = 0.082 (at node 13)
	maximum = 0.116 (at node 10)
Injected flit rate average = 0.09825
	minimum = 0.083 (at node 5)
	maximum = 0.121 (at node 8)
Accepted flit rate average= 0.096
	minimum = 0.082 (at node 13)
	maximum = 0.116 (at node 10)
Injected packet length average = 1
Accepted packet length average = 1
Total in-flight flits = 36 (0 measured)
latency change    = 0.0106278
throughput change = 0.0234375
Class 0:
Packet latency average = 19.7237
	minimum = 7
	maximum = 38
Network latency average = 19.7237
	minimum = 7
	maximum = 38
Slowest packet = 41209
Flit latency average = 19.7237
	minimum = 7
	maximum = 38
Slowest flit = 41209
Fragmentation average = 0
	minimum = 0
	maximum = 0
Injected packet rate average = 0.097125
	minimum = 0.08 (at node 0)
	maximum = 0.126 (at node 3)
Accepted packet rate average = 0.096375
	minimum = 0.072 (at node 0)
	maximum = 0.122 (at node 2)
Injected flit rate average = 0.097125
	minimum = 0.08 (at node 0)
	maximum = 0.126 (at node 3)
Accepted flit rate average= 0.096375
	minimum = 0.072 (at node 0)
	maximum = 0.122 (at node 2)
Injected packet length average = 1
Accepted packet length average = 1
Total in-flight flits = 42 (0 measured)
latency change    = 0.00916493
throughput change = 0.00389105
Warmed up ...Time used is 1500 cycles
Class 0:
Packet latency average = 19.563
	minimum = 7
	maximum = 37
Network latency average = 19.563
	minimum = 7
	maximum = 37
Slowest packet = 41896
Flit latency average = 19.6321
	minimum = 7
	maximum = 39
Slowest flit = 41845
Fragmentation average = 0
	minimum = 0
	maximum = 0
Injected packet rate average = 0.09425
	minimum = 0.07 (at node 2)
	maximum = 0.124 (at node 7)
Accepted packet rate average = 0.0965
	minimum = 0.074 (at node 8)
	maximum = 0.134 (at node 3)
Injected flit rate average = 0.09425
	minimum = 0.07 (at node 2)
	maximum = 0.124 (at node 7)
Accepted flit rate average= 0.0965
	minimum = 0.074 (at node 8)
	maximum = 0.134 (at node 3)
Injected packet length average = 1
Accepted packet length average = 1
Total in-flight flits = 24 (24 measured)
latency change    = 0.00821559
throughput change = 0.00129534
Class 0:
Packet latency average = 19.544
	minimum = 7
	maximum = 38
Network latency average = 19.5427
	minimum = 7
	maximum = 38
Slowest packet = 43245
Flit latency average = 19.5764
	minimum = 7
	maximum = 39
Slowest flit = 41845
Fragmentation average = 0
	minimum = 0
	maximum = 0
Injected packet rate average = 0.100125
	minimum = 0.08 (at node 3)
	maximum = 0.117 (at node 15)
Accepted packet rate average = 0.100625
	minimum = 0.083 (at node 7)
	maximum = 0.119 (at node 6)
Injected flit rate average = 0.100125
	minimum = 0.08 (at node 3)
	maximum = 0.117 (at node 15)
Accepted flit rate average= 0.100625
	minimum = 0.083 (at node 7)
	maximum = 0.119 (at node 6)
Injected packet length average = 1
Accepted packet length average = 1
Total in-flight flits = 34 (34 measured)
latency change    = 0.000972605
throughput change = 0.0409938
Class 0:
Packet latency average = 19.4615
	minimum = 7
	maximum = 39
Network latency average = 19.4607
	minimum = 7
	maximum = 39
Slowest packet = 44173
Flit latency average = 19.4845
	minimum = 7
	maximum = 39
Slowest flit = 41845
Fragmentation average = 0
	minimum = 0
	maximum = 0
Injected packet rate average = 0.100458
	minimum = 0.0826667 (at node 3)
	maximum = 0.117333 (at node 14)
Accepted packet rate average = 0.100875
	minimum = 0.088 (at node 7)
	maximum = 0.114667 (at node 6)
Injected flit rate average = 0.100458
	minimum = 0.0826667 (at node 3)
	maximum = 0.117333 (at node 14)
Accepted flit rate average= 0.100875
	minimum = 0.088 (at node 7)
	maximum = 0.114667 (at node 6)
Injected packet length average = 1
Accepted packet length average = 1
Total in-flight flits = 32 (32 measured)
latency change    = 0.00423742
throughput change = 0.00247831
Draining all recorded packets ...
Draining remaining packets ...
Time taken is 3060 cycles
Class 0:
Packet latency average = 19.6662
	minimum = 7
	maximum = 39
Network latency average = 19.6662
	minimum = 7
	maximum = 39
Slowest packet = 44542
Flit latency average = 19.6662
	minimum = 7
	maximum = 39
Slowest flit = 44542
Fragmentation average = 0
	minimum = 0
	maximum = 0
Injected packet rate average = 0.098375
	minimum = 0.074 (at node 5)
	maximum = 0.132 (at node 0)
Accepted packet rate average = 0.094375
	minimum = 0.074 (at node 13)
	maximum = 0.11 (at node 1)
Injected flit rate average = 0.098375
	minimum = 0.074 (at node 5)
	maximum = 0.132 (at node 0)
Accepted flit rate average= 0.094375
	minimum = 0.074 (at node 13)
	maximum = 0.11 (at node 1)
Injected packet length average = 1
Accepted packet length average = 1
Total in-flight flits = 32 (0 measured)
latency change    = 1
throughput change = 1
Class 0:
Packet latency average = 19.7059
	minimum = 7
	maximum = 42
Network latency average = 19.7059
	minimum = 7
	maximum = 42
Slowest packet = 45487
Flit latency average = 19.7059
	minimum = 7
	maximum = 42
Slowest flit = 45487
Fragmentation average = 0
	minimum = 0
	maximum = 0
Injected packet rate average = 0.101
	minimum = 0.081 (at node 6)
	maximum = 0.12 (at node 0)
Accepted packet rate average = 0.0988125
	minimum = 0.084 (at node 13)
	maximum = 0.119 (at node 5)
Injected flit rate average = 0.101
	minimum = 0.081 (at node 6)
	maximum = 0.12 (at node 0)
Accepted flit rate average= 0.0988125
	minimum = 0.084 (at node 13)
	maximum = 0.119 (at node 5)
Injected packet length average = 1
Accepted packet length average = 1
Total in-flight flits = 35 (0 measured)
latency change    = 0.00201245
throughput change = 0.0449083
Class 0:
Packet latency average = 19.6224
	minimum = 7
	maximum = 38
Network latency average = 19.6212
	minimum = 7
	maximum = 38
Slowest packet = 46042
Flit latency average = 19.6212
	minimum = 7
	maximum = 38
Slowest flit = 46042
Fragmentation average = 0
	minimum = 0
	maximum = 0
Injected packet rate average = 0.102
	minimum = 0.08 (at node 3)
	maximum = 0.136 (at node 11)
Accepted packet rate average = 0.103625
	minimum = 0.066 (at node 8)
	maximum = 0.126 (at node 0)
Injected flit rate average = 0.102
	minimum = 0.08 (at node 3)
	maximum = 0.136 (at node 11)
Accepted flit rate average= 0.103625
	minimum = 0.066 (at node 8)
	maximum = 0.126 (at node 0)
Injected packet length average = 1
Accepted packet length average = 1
Total in-flight flits = 22 (0 measured)
latency change    = 0.00425256
throughput change = 0.0464415
Warmed up ...Time used is 1500 cycles
Class 0:
Packet latency average = 19.9614
	minimum = 7
	maximum = 39
Network latency average = 19.9614
	minimum = 7
	maximum = 39
Slowest packet = 47278
Flit latency average = 19.9753
	minimum = 7
	maximum = 39
Slowest flit = 47278
Fragmentation average = 0
	minimum = 0
	maximum = 0
Injected packet rate average = 0.107375
	minimum = 0.082 (at node 10)
	maximum = 0.14 (at node 4)
Accepted packet rate average = 0.106375
	minimum = 0.062 (at node 15)
	maximum = 0.138 (at node 0)
Injected flit rate average = 0.107375
	minimum = 0.082 (at node 10)
	maximum = 0.14 (at node 4)
Accepted flit rate average= 0.106375
	minimum = 0.062 (at node 15)
	maximum = 0.138 (at node 0)
Injected packet length average = 1
Accepted packet length average = 1
Total in-flight flits = 30 (30 measured)
latency change    = 0.0169809
throughput change = 0.0258519
Class 0:
Packet latency average = 19.8181
	minimum = 7
	maximum = 39
Network latency average = 19.8181
	minimum = 7
	maximum = 39
Slowest packet = 47278
Flit latency average = 19.8272
	minimum = 7
	maximum = 39
Slowest flit = 47278
Fragmentation average = 0
	minimum = 0
	maximum = 0
Injected packet rate average = 0.102563
	minimum = 0.083 (at node 10)
	maximum = 0.123 (at node 4)
Accepted packet rate average = 0.102375
	minimum = 0.076 (at node 15)
	maximum = 0.122 (at node 4)
Injected flit rate average = 0.102563
	minimum = 0.083 (at node 10)
	maximum = 0.123 (at node 4)
Accepted flit rate average= 0.102375
	minimum = 0.076 (at node 15)
	maximum = 0.122 (at node 4)
Injected packet length average = 1
Accepted packet length average = 1
Total in-flight flits = 25 (25 measured)
latency change    = 0.00723229
throughput change = 0.039072
Class 0:
Packet latency average = 19.7544
	minimum = 7
	maximum = 39
Network latency average = 19.754
	minimum = 7
	maximum = 39
Slowest packet = 47278
Flit latency average = 19.7607
	minimum = 7
	maximum = 39
Slowest flit = 47278
Fragmentation average = 0
	minimum = 0
	maximum = 0
Injected packet rate average = 0.102458
	minimum = 0.0906667 (at node 6)
	maximum = 0.123333 (at node 4)
Accepted packet rate average = 0.101875
	minimum = 0.088 (at node 3)
	maximum = 0.118667 (at node 14)
Injected flit rate average = 0.102458
	minimum = 0.0906667 (at node 6)
	maximum = 0.123333 (at node 4)
Accepted flit rate average= 0.101875
	minimum = 0.088 (at node 3)
	maximum = 0.118667 (at node 14)
Injected packet length average = 1
Accepted packet length average = 1
Total in-flight flits = 36 (36 measured)
latency change    = 0.00322118
throughput change = 0.00490798
Draining all recorded packets ...
Draining remaining packets ...
Time taken is 3062 cycles
Class 0:
Packet latency average = 19.6658
	minimum = 7
	maximum = 38
Network latency average = 19.6658
	minimum = 7
	maximum = 38
Slowest packet = 49339
Flit latency average = 19.6658
	minimum = 7
	maximum = 38
Slowest flit = 49339
Fragmentation average = 0
	minimum = 0
	maximum = 0
Injected packet rate average = 0.101125
	minimum = 0.078 (at node 11)
	maximum = 0.12 (at node 15)
Accepted packet rate average = 0.097625
	minimum = 0.074 (at node 10)
	maximum = 0.124 (at node 13)
Injected flit rate average = 0.101125
	minimum = 0.078 (at node 11)
	maximum = 0.12 (at node 15)
Accepted flit rate average= 0.097625
	minimum = 0.074 (at node 10)
	maximum = 0.124 (at node 13)
Injected packet length average = 1
Accepted packet length average = 1
Total in-flight flits = 28 (0 measured)
latency change    = 1
throughput change = 1
Class 0:
Packet latency average = 19.7373
	minimum = 7
	maximum = 38
Network latency average = 19.7373
	minimum = 7
	maximum = 38
Slowest packet = 49339
Flit latency average = 19.7373
	minimum = 7
	maximum = 38
Slowest flit = 49339
Fragmentation average = 0
	minimum = 0
	maximum = 0
Injected packet rate average = 0.100437
	minimum = 0.084 (at node 7)
	maximum = 0.116 (at node 4)
Accepted packet rate average = 0.0985
	minimum = 0.081 (at node 2)
	maximum = 0.118 (at node 14)
Injected flit rate average = 0.100437
	minimum = 0.084 (at node 7)
	maximum = 0.116 (at node 4)
Accepted flit rate average= 0.0985
	minimum = 0.081 (at node 2)
	maximum = 0.118 (at node 14)
Injected packet length average = 1
Accepted packet length average = 1
Total in-flight flits = 31 (0 measured)
latency change    = 0.00362241
throughput change = 0.00888325
Class 0:
Packet latency average = 19.43
	minimum = 7
	maximum = 38
Network latency average = 19.43
	minimum = 7
	maximum = 38
Slowest packet = 51125
Flit latency average = 19.43
	minimum = 7
	maximum = 38
Slowest flit = 51125
Fragmentation average = 0
	minimum = 0
	maximum = 0
Injected packet rate average = 0.098125
	minimum = 0.08 (at node 0)
	maximum = 0.114 (at node 3)
Accepted packet rate average = 0.097375
	minimum = 0.076 (at node 12)
	maximum = 0.128 (at node 10)
Injected flit rate average = 0.098125
	minimum = 0.08 (at node 0)
	maximum = 0.114 (at node 3)
Accepted flit rate average= 0.097375
	minimum = 0.076 (at node 12)
	maximum = 0.128 (at node 10)
Injected packet length average = 1
Accepted packet length average = 1
Total in-flight flits = 37 (0 measured)
latency change    = 0.0158142
throughput change = 0.0115533
Warmed up ...Time used is 1500 cycles
Class 0:
Packet latency average = 19.2746
	minimum = 7
	maximum = 39
Network latency average = 19.272
	minimum = 7
	maximum = 39
Slowest packet = 51929
Flit latency average = 19.4198
	minimum = 7
	maximum = 39
Slowest flit = 51929
Fragmentation average = 0
	minimum = 0
	maximum = 0
Injected packet rate average = 0.100375
	minimum = 0.08 (at node 4)
	maximum = 0.122 (at node 0)
Accepted packet rate average = 0.09975
	minimum = 0.078 (at node 6)
	maximum = 0.12 (at node 10)
Injected flit rate average = 0.100375
	minimum = 0.08 (at node 4)
	maximum = 0.122 (at node 0)
Accepted flit rate average= 0.09975
	minimum = 0.078 (at node 6)
	maximum = 0.12 (at node 10)
Injected packet length average = 1
Accepted packet length average = 1
Total in-flight flits = 42 (42 measured)
latency change    = 0.0080624
throughput change = 0.0238095
Class 0:
Packet latency average = 19.5736
	minimum = 7
	maximum = 39
Network latency average = 19.5712
	minimum = 7
	maximum = 39
Slowest packet = 51929
Flit latency average = 19.6355
	minimum = 7
	maximum = 39
Slowest flit = 51929
Fragmentation average = 0
	minimum = 0
	maximum = 0
Injected packet rate average = 0.103438
	minimum = 0.084 (at node 4)
	maximum = 0.124 (at node 13)
Accepted packet rate average = 0.10375
	minimum = 0.086 (at node 6)
	maximum = 0.12 (at node 10)
Injected flit rate average = 0.103438
	minimum = 0.084 (at node 4)
	maximum = 0.124 (at node 13)
Accepted flit rate average= 0.10375
	minimum = 0.086 (at node 6)
	maximum = 0.12 (at node 10)
Injected packet length average = 1
Accepted packet length average = 1
Total in-flight flits = 32 (32 measured)
latency change    = 0.0152752
throughput change = 0.0385542
Class 0:
Packet latency average = 19.6678
	minimum = 7
	maximum = 40
Network latency average = 19.6661
	minimum = 7
	maximum = 40
Slowest packet = 53276
Flit latency average = 19.7082
	minimum = 7
	maximum = 40
Slowest flit = 53276
Fragmentation average = 0
	minimum = 0
	maximum = 0
Injected packet rate average = 0.102292
	minimum = 0.088 (at node 8)
	maximum = 0.117333 (at node 0)
Accepted packet rate average = 0.10225
	minimum = 0.0886667 (at node 5)
	maximum = 0.113333 (at node 2)
Injected flit rate average = 0.102292
	minimum = 0.088 (at node 8)
	maximum = 0.117333 (at node 0)
Accepted flit rate average= 0.10225
	minimum = 0.0886667 (at node 5)
	maximum = 0.113333 (at node 2)
Injected packet length average = 1
Accepted packet length average = 1
Total in-flight flits = 38 (38 measured)
latency change    = 0.00478656
throughput change = 0.0146699
Draining all recorded packets ...
Draining remaining packets ...
Time taken is 3064 cycles
Class 0:
Packet latency average = 19.4586
	minimum = 7
	maximum = 40
Network latency average = 19.4586
	minimum = 7
	maximum = 40
Slowest packet = 54525
Flit latency average = 19.4586
	minimum = 7
	maximum = 40
Slowest flit = 54525
Fragmentation average = 0
	minimum = 0
	maximum = 0
Injected packet rate average = 0.10125
	minimum = 0.078 (at node 11)
	maximum = 0.14 (at node 9)
Accepted packet rate average = 0.098125
	minimum = 0.066 (at node 15)
	maximum = 0.118 (at node 11)
Injected flit rate average = 0.10125
	minimum = 0.078 (at node 11)
	maximum = 0.14 (at node 9)
Accepted flit rate average= 0.098125
	minimum = 0.066 (at node 15)
	maximum = 0.118 (at node 11)
Injected packet length average = 1
Accepted packet length average = 1
Total in-flight flits = 25 (0 measured)
latency change    = 1
throughput change = 1
Class 0:
Packet latency average = 19.4895
	minimum = 7
	maximum = 40
Network latency average = 19.4895
	minimum = 7
	maximum = 40
Slowest packet = 54525
Flit latency average = 19.4895
	minimum = 7
	maximum = 40
Slowest flit = 54525
Fragmentation average = 0
	minimum = 0
	maximum = 0
Injected packet rate average = 0.102938
	minimum = 0.09 (at node 4)
	maximum = 0.125 (at node 9)
Accepted packet rate average = 0.10075
	minimum = 0.081 (at node 0)
	maximum = 0.116 (at node 9)
Injected flit rate average = 0.102938
	minimum = 0.09 (at node 4)
	maximum = 0.125 (at node 9)
Accepted flit rate average= 0.10075
	minimum = 0.081 (at node 0)
	maximum = 0.116 (at node 9)
Injected packet length average = 1
Accepted packet length average = 1
Total in-flight flits = 35 (0 measured)
latency change    = 0.00158318
throughput change = 0.0260546
Class 0:
Packet latency average = 19.1327
	minimum = 7
	maximum = 38
Network latency average = 19.1314
	minimum = 7
	maximum = 38
Slowest packet = 56077
Flit latency average = 19.1314
	minimum = 7
	maximum = 38
Slowest flit = 56077
Fragmentation average = 0
	minimum = 0
	maximum = 0
Injected packet rate average = 0.101625
	minimum = 0.09 (at node 14)
	maximum = 0.12 (at node 7)
Accepted packet rate average = 0.10175
	minimum = 0.078 (at node 12)
	maximum = 0.136 (at node 14)
Injected flit rate average = 0.101625
	minimum = 0.09 (at node 14)
	maximum = 0.12 (at node 7)
Accepted flit rate average= 0.10175
	minimum = 0.078 (at node 12)
	maximum = 0.136 (at node 14)
Injected packet length average = 1
Accepted packet length average = 1
Total in-flight flits = 34 (0 measured)
latency change    = 0.0186475
throughput change = 0.00982801
Warmed up ...Time used is 1500 cycles
Class 0:
Packet latency average = 18.944
	minimum = 7
	maximum = 41
Network latency average = 18.9364
	minimum = 7
	maximum = 41
Slowest packet = 56641
Flit latency average = 19.0439
	minimum = 7
	maximum = 41
Slowest flit = 56641
Fragmentation average = 0
	minimum = 0
	maximum = 0
Injected packet rate average = 0.10175
	minimum = 0.088 (at node 0)
	maximum = 0.122 (at node 3)
Accepted packet rate average = 0.1025
	minimum = 0.072 (at node 5)
	maximum = 0.138 (at node 13)
Injected flit rate average = 0.10175
	minimum = 0.088 (at node 0)
	maximum = 0.122 (at node 3)
Accepted flit rate average= 0.1025
	minimum = 0.072 (at node 5)
	maximum = 0.138 (at node 13)
Injected packet length average = 1
Accepted packet length average = 1
Total in-flight flits = 28 (28 measured)
latency change    = 0.0099587
throughput change = 0.00731707
Class 0:
Packet latency average = 19.3638
	minimum = 7
	maximum = 41
Network latency average = 19.36
	minimum = 7
	maximum = 41
Slowest packet = 56641
Flit latency average = 19.4056
	minimum = 7
	maximum = 41
Slowest flit = 56641
Fragmentation average = 0
	minimum = 0
	maximum = 0
Injected packet rate average = 0.10125
	minimum = 0.084 (at node 11)
	maximum = 0.119 (at node 3)
Accepted packet rate average = 0.10125
	minimum = 0.085 (at node 15)
	maximum = 0.116 (at node 13)
Injected flit rate average = 0.10125
	minimum = 0.084 (at node 11)
	maximum = 0.119 (at node 3)
Accepted flit rate average= 0.10125
	minimum = 0.085 (at node 15)
	maximum = 0.116 (at node 13)
Injected packet length average = 1
Accepted packet length average = 1
Total in-flight flits = 34 (34 measured)
latency change    = 0.021679
throughput change = 0.0123457
Class 0:
Packet latency average = 19.4555
	minimum = 7
	maximum = 41
Network latency average = 19.4529
	minimum = 7
	maximum = 41
Slowest packet = 56641
Flit latency average = 19.4822
	minimum = 7
	maximum = 41
Slowest flit = 56641
Fragmentation average = 0
	minimum = 0
	maximum = 0
Injected packet rate average = 0.100458
	minimum = 0.0873333 (at node 0)
	maximum = 0.113333 (at node 4)
Accepted packet rate average = 0.100583
	minimum = 0.0866667 (at node 6)
	maximum = 0.112 (at node 3)
Injected flit rate average = 0.100458
	minimum = 0.0873333 (at node 0)
	maximum = 0.113333 (at node 4)
Accepted flit rate average= 0.100583
	minimum = 0.0866667 (at node 6)
	maximum = 0.112 (at node 3)
Injected packet length average = 1
Accepted packet length average = 1
Total in-flight flits = 31 (31 measured)
latency change    = 0.00471096
throughput change = 0.006628
Draining all recorded packets ...
Draining remaining packets ...
Time taken is 3058 cycles
Class 0:
Packet latency average = 20.0469
	minimum = 7
	maximum = 39
Network latency average = 20.0469
	minimum = 7
	maximum = 39
Slowest packet = 59424
Flit latency average = 20.0469
	minimum = 7
	maximum = 39
Slowest flit = 59424
Fragmentation average = 0
	minimum = 0
	maximum = 0
Injected packet rate average = 0.0995
	minimum = 0.086 (at node 5)
	maximum = 0.134 (at node 7)
Accepted packet rate average = 0.095875
	minimum = 0.064 (at node 5)
	maximum = 0.116 (at node 0)
Injected flit rate average = 0.0995
	minimum = 0.086 (at node 5)
	maximum = 0.134 (at node 7)
Accepted flit rate average= 0.095875
	minimum = 0.064 (at node 5)
	maximum = 0.116 (at node 0)
Injected packet length average = 1
Accepted packet length average = 1
Total in-flight flits = 29 (0 measured)
latency change    = 1
throughput change = 1
Class 0:
Packet latency average = 19.9452
	minimum = 7
	maximum = 40
Network latency average = 19.9452
	minimum = 7
	maximum = 40
Slowest packet = 59832
Flit latency average = 19.9452
	minimum = 7
	maximum = 40
Slowest flit = 59832
Fragmentation average = 0
	minimum = 0
	maximum = 0
Injected packet rate average = 0.098875
	minimum = 0.086 (at node 5)
	maximum = 0.12 (at node 7)
Accepted packet rate average = 0.097
	minimum = 0.075 (at node 5)
	maximum = 0.113 (at node 6)
Injected flit rate average = 0.098875
	minimum = 0.086 (at node 5)
	maximum = 0.12 (at node 7)
Accepted flit rate average= 0.097
	minimum = 0.075 (at node 5)
	maximum = 0.113 (at node 6)
Injected packet length average = 1
Accepted packet length average = 1
Total in-flight flits = 30 (0 measured)
latency change    = 0.00509917
throughput change = 0.0115979
Class 0:
Packet latency average = 19.3706
	minimum = 7
	maximum = 38
Network latency average = 19.3706
	minimum = 7
	maximum = 38
Slowest packet = 60901
Flit latency average = 19.3706
	minimum = 7
	maximum = 38
Slowest flit = 60901
Fragmentation average = 0
	minimum = 0
	maximum = 0
Injected packet rate average = 0.09975
	minimum = 0.076 (at node 10)
	maximum = 0.122 (at node 3)
Accepted packet rate average = 0.0995
	minimum = 0.066 (at node 14)
	maximum = 0.122 (at node 8)
Injected flit rate average = 0.09975
	minimum = 0.076 (at node 10)
	maximum = 0.122 (at node 3)
Accepted flit rate average= 0.0995
	minimum = 0.066 (at node 14)
	maximum = 0.122 (at node 8)
Injected packet length average = 1
Accepted packet length average = 1
Total in-flight flits = 32 (0 measured)
latency change    = 0.029665
throughput change = 0.0251256
Warmed up ...Time used is 1500 cycles
Class 0:
Packet latency average = 19.3004
	minimum = 7
	maximum = 37
Network latency average = 19.3004
	minimum = 7
	maximum = 37
Slowest packet = 61553
Flit latency average = 19.3617
	minimum = 7
	maximum = 37
Slowest flit = 61445
Fragmentation average = 0
	minimum = 0
	maximum = 0
Injected packet rate average = 0.09175
	minimum = 0.066 (at node 14)
	maximum = 0.122 (at node 6)
Accepted packet rate average = 0.092625
	minimum = 0.068 (at node 7)
	maximum = 0.11 (at node 5)
Injected flit rate average = 0.09175
	minimum = 0.066 (at node 14)
	maximum = 0.122 (at node 6)
Accepted flit rate average= 0.092625
	minimum = 0.068 (at node 7)
	maximum = 0.11 (at node 5)
Injected packet length average = 1
Accepted packet length average = 1
Total in-flight flits = 25 (25 measured)
latency change    = 0.00363618
throughput change = 0.074224
Class 0:
Packet latency average = 19.6604
	minimum = 7
	maximum = 37
Network latency average = 19.6597
	minimum = 7
	maximum = 37
Slowest packet = 61553
Flit latency average = 19.6821
	minimum = 7
	maximum = 37
Slowest flit = 61445
Fragmentation average = 0
	minimum = 0
	maximum = 0
Injected packet rate average = 0.094125
	minimum = 0.073 (at node 14)
	maximum = 0.115 (at node 8)
Accepted packet rate average = 0.094375
	minimum = 0.079 (at node 7)
	maximum = 0.113 (at node 5)
Injected flit rate average = 0.094125
	minimum = 0.073 (at node 14)
	maximum = 0.115 (at node 8)
Accepted flit rate average= 0.094375
	minimum = 0.079 (at node 7)
	maximum = 0.113 (at node 5)
Injected packet length average = 1
Accepted packet length average = 1
Total in-flight flits = 28 (28 measured)
latency change    = 0.0183073
throughput change = 0.018543
Class 0:
Packet latency average = 19.6394
	minimum = 7
	maximum = 44
Network latency average = 19.639
	minimum = 7
	maximum = 44
Slowest packet = 63674
Flit latency average = 19.6541
	minimum = 7
	maximum = 44
Slowest flit = 63674
Fragmentation average = 0
	minimum = 0
	maximum = 0
Injected packet rate average = 0.0949167
	minimum = 0.0733333 (at node 14)
	maximum = 0.11 (at node 8)
Accepted packet rate average = 0.0950417
	minimum = 0.082 (at node 13)
	maximum = 0.108 (at node 10)
Injected flit rate average = 0.0949167
	minimum = 0.0733333 (at node 14)
	maximum = 0.11 (at node 8)
Accepted flit rate average= 0.0950417
	minimum = 0.082 (at node 13)
	maximum = 0.108 (at node 10)
Injected packet length average = 1
Accepted packet length average = 1
Total in-flight flits = 29 (29 measured)
latency change    = 0.00106707
throughput change = 0.00701447
Class 0:
Packet latency average = 19.5298
	minimum = 7
	maximum = 44
Network latency average = 19.5295
	minimum = 7
	maximum = 44
Slowest packet = 63674
Flit latency average = 19.5418
	minimum = 7
	maximum = 44
Slowest flit = 63674
Fragmentation average = 0
	minimum = 0
	maximum = 0
Injected packet rate average = 0.0964375
	minimum = 0.0815 (at node 14)
	maximum = 0.1105 (at node 5)
Accepted packet rate average = 0.096375
	minimum = 0.083 (at node 13)
	maximum = 0.1065 (at node 10)
Injected flit rate average = 0.0964375
	minimum = 0.0815 (at node 14)
	maximum = 0.1105 (at node 5)
Accepted flit rate average= 0.096375
	minimum = 0.083 (at node 13)
	maximum = 0.1065 (at node 10)
Injected packet length average = 1
Accepted packet length average = 1
Total in-flight flits = 34 (34 measured)
latency change    = 0.00561084
throughput change = 0.0138348
Draining all recorded packets ...
Draining remaining packets ...
Time taken is 3559 cycles
Class 0:
Packet latency average = 19.706
	minimum = 7
	maximum = 38
Network latency average = 19.7048
	minimum = 7
	maximum = 38
Slowest packet = 64620
Flit latency average = 19.7048
	minimum = 7
	maximum = 38
Slowest flit = 64620
Fragmentation average = 0
	minimum = 0
	maximum = 0
Injected packet rate average = 0.105375
	minimum = 0.084 (at node 11)
	maximum = 0.132 (at node 5)
Accepted packet rate average = 0.101625
	minimum = 0.08 (at node 2)
	maximum = 0.128 (at node 7)
Injected flit rate average = 0.105375
	minimum = 0.084 (at node 11)
	maximum = 0.132 (at node 5)
Accepted flit rate average= 0.101625
	minimum = 0.08 (at node 2)
	maximum = 0.128 (at node 7)
Injected packet length average = 1
Accepted packet length average = 1
Total in-flight flits = 30 (0 measured)
latency change    = 1
throughput change = 1
Class 0:
Packet latency average = 19.6577
	minimum = 7
	maximum = 39
Network latency average = 19.6571
	minimum = 7
	maximum = 39
Slowest packet = 65793
Flit latency average = 19.6571
	minimum = 7
	maximum = 39
Slowest flit = 65793
Fragmentation average = 0
	minimum = 0
	maximum = 0
Injected packet rate average = 0.0999375
	minimum = 0.087 (at node 2)
	maximum = 0.116 (at node 8)
Accepted packet rate average = 0.0975
	minimum = 0.081 (at node 6)
	maximum = 0.112 (at node 7)
Injected flit rate average = 0.0999375
	minimum = 0.087 (at node 2)
	maximum = 0.116 (at node 8)
Accepted flit rate average= 0.0975
	minimum = 0.081 (at node 6)
	maximum = 0.112 (at node 7)
Injected packet length average = 1
Accepted packet length average = 1
Total in-flight flits = 39 (0 measured)
latency change    = 0.00245882
throughput change = 0.0423077
Class 0:
Packet latency average = 19.2615
	minimum = 7
	maximum = 37
Network latency average = 19.2615
	minimum = 7
	maximum = 37
Slowest packet = 66193
Flit latency average = 19.2615
	minimum = 7
	maximum = 37
Slowest flit = 66193
Fragmentation average = 0
	minimum = 0
	maximum = 0
Injected packet rate average = 0.098875
	minimum = 0.074 (at node 2)
	maximum = 0.136 (at node 14)
Accepted packet rate average = 0.100375
	minimum = 0.084 (at node 15)
	maximum = 0.13 (at node 5)
Injected flit rate average = 0.098875
	minimum = 0.074 (at node 2)
	maximum = 0.136 (at node 14)
Accepted flit rate average= 0.100375
	minimum = 0.084 (at node 15)
	maximum = 0.13 (at node 5)
Injected packet length average = 1
Accepted packet length average = 1
Total in-flight flits = 27 (0 measured)
latency change    = 0.0205681
throughput change = 0.0286426
Warmed up ...Time used is 1500 cycles
Class 0:
Packet latency average = 19.7627
	minimum = 7
	maximum = 38
Network latency average = 19.7613
	minimum = 7
	maximum = 38
Slowest packet = 67087
Flit latency average = 19.8597
	minimum = 7
	maximum = 38
Slowest flit = 67087
Fragmentation average = 0
	minimum = 0
	maximum = 0
Injected packet rate average = 0.098
	minimum = 0.076 (at node 5)
	maximum = 0.12 (at node 10)
Accepted packet rate average = 0.097125
	minimum = 0.064 (at node 12)
	maximum = 0.128 (at node 0)
Injected flit rate average = 0.098
	minimum = 0.076 (at node 5)
	maximum = 0.12 (at node 10)
Accepted flit rate average= 0.097125
	minimum = 0.064 (at node 12)
	maximum = 0.128 (at node 0)
Injected packet length average = 1
Accepted packet length average = 1
Total in-flight flits = 34 (34 measured)
latency change    = 0.0253583
throughput change = 0.033462
Class 0:
Packet latency average = 19.678
	minimum = 7
	maximum = 38
Network latency average = 19.6774
	minimum = 7
	maximum = 38
Slowest packet = 67087
Flit latency average = 19.7281
	minimum = 7
	maximum = 38
Slowest flit = 67087
Fragmentation average = 0
	minimum = 0
	maximum = 0
Injected packet rate average = 0.0973125
	minimum = 0.082 (at node 7)
	maximum = 0.108 (at node 6)
Accepted packet rate average = 0.097
	minimum = 0.076 (at node 12)
	maximum = 0.127 (at node 6)
Injected flit rate average = 0.0973125
	minimum = 0.082 (at node 7)
	maximum = 0.108 (at node 6)
Accepted flit rate average= 0.097
	minimum = 0.076 (at node 12)
	maximum = 0.127 (at node 6)
Injected packet length average = 1
Accepted packet length average = 1
Total in-flight flits = 32 (32 measured)
latency change    = 0.00430093
throughput change = 0.00128866
Class 0:
Packet latency average = 19.6446
	minimum = 7
	maximum = 40
Network latency average = 19.6441
	minimum = 7
	maximum = 40
Slowest packet = 69263
Flit latency average = 19.678
	minimum = 7
	maximum = 40
Slowest flit = 69263
Fragmentation average = 0
	minimum = 0
	maximum = 0
Injected packet rate average = 0.0981667
	minimum = 0.0853333 (at node 11)
	maximum = 0.110667 (at node 10)
Accepted packet rate average = 0.0979583
	minimum = 0.086 (at node 9)
	maximum = 0.116 (at node 11)
Injected flit rate average = 0.0981667
	minimum = 0.0853333 (at node 11)
	maximum = 0.110667 (at node 10)
Accepted flit rate average= 0.0979583
	minimum = 0.086 (at node 9)
	maximum = 0.116 (at node 11)
Injected packet length average = 1
Accepted packet length average = 1
Total in-flight flits = 32 (32 measured)
latency change    = 0.00170299
throughput change = 0.00978307
Draining all recorded packets ...
Draining remaining packets ...
Time taken is 3060 cycles
Class 0:
Packet latency average = 19.3832
	minimum = 7
	maximum = 37
Network latency average = 19.3832
	minimum = 7
	maximum = 37
Slowest packet = 69549
Flit latency average = 19.3832
	minimum = 7
	maximum = 37
Slowest flit = 69549
Fragmentation average = 0
	minimum = 0
	maximum = 0
Injected packet rate average = 0.1035
	minimum = 0.08 (at node 2)
	maximum = 0.124 (at node 6)
Accepted packet rate average = 0.0985
	minimum = 0.078 (at node 2)
	maximum = 0.138 (at node 4)
Injected flit rate average = 0.1035
	minimum = 0.08 (at node 2)
	maximum = 0.124 (at node 6)
Accepted flit rate average= 0.0985
	minimum = 0.078 (at node 2)
	maximum = 0.138 (at node 4)
Injected packet length average = 1
Accepted packet length average = 1
Total in-flight flits = 40 (0 measured)
latency change    = 1
throughput change = 1
Class 0:
Packet latency average = 19.3145
	minimum = 7
	maximum = 38
Network latency average = 19.3145
	minimum = 7
	maximum = 38
Slowest packet = 70195
Flit latency average = 19.3145
	minimum = 7
	maximum = 38
Slowest flit = 70195
Fragmentation average = 0
	minimum = 0
	maximum = 0
Injected packet rate average = 0.10325
	minimum = 0.092 (at node 0)
	maximum = 0.123 (at node 6)
Accepted packet rate average = 0.101562
	minimum = 0.087 (at node 1)
	maximum = 0.129 (at node 4)
Injected flit rate average = 0.10325
	minimum = 0.092 (at node 0)
	maximum = 0.123 (at node 6)
Accepted flit rate average= 0.101562
	minimum = 0.087 (at node 1)
	maximum = 0.129 (at node 4)
Injected packet length average = 1
Accepted packet length average = 1
Total in-flight flits = 27 (0 measured)
latency change    = 0.00356143
throughput change = 0.0301538
Class 0:
Packet latency average = 19.0134
	minimum = 7
	maximum = 38
Network latency average = 19.0134
	minimum = 7
	maximum = 38
Slowest packet = 71527
Flit latency average = 19.0134
	minimum = 7
	maximum = 38
Slowest flit = 71527
Fragmentation average = 0
	minimum = 0
	maximum = 0
Injected packet rate average = 0.103
	minimum = 0.072 (at node 13)
	maximum = 0.13 (at node 6)
Accepted packet rate average = 0.102625
	minimum = 0.082 (at node 13)
	maximum = 0.124 (at node 3)
Injected flit rate average = 0.103
	minimum = 0.072 (at node 13)
	maximum = 0.13 (at node 6)
Accepted flit rate average= 0.102625
	minimum = 0.082 (at node 13)
	maximum = 0.124 (at node 3)
Injected packet length average = 1
Accepted packet length average = 1
Total in-flight flits = 30 (0 measured)
latency change    = 0.0158343
throughput change = 0.0103532
Warmed up ...Time used is 1500 cycles
Class 0:
Packet latency average = 19.8038
	minimum = 7
	maximum = 38
Network latency average = 19.8038
	minimum = 7
	maximum = 38
Slowest packet = 72072
Flit latency average = 19.8656
	minimum = 7
	maximum = 38
Slowest flit = 72072
Fragmentation average = 0
	minimum = 0
	maximum = 0
Injected packet rate average = 0.097875
	minimum = 0.078 (at node 8)
	maximum = 0.118 (at node 3)
Accepted packet rate average = 0.09675
	minimum = 0.074 (at node 2)
	maximum = 0.128 (at node 3)
Injected flit rate average = 0.097875
	minimum = 0.078 (at node 8)
	maximum = 0.118 (at node 3)
Accepted flit rate average= 0.09675
	minimum = 0.074 (at node 2)
	maximum = 0.128 (at node 3)
Injected packet length average = 1
Accepted packet length average = 1
Total in-flight flits = 39 (39 measured)
latency change    = 0.0399098
throughput change = 0.0607235
Class 0:
Packet latency average = 19.707
	minimum = 7
	maximum = 38
Network latency average = 19.707
	minimum = 7
	maximum = 38
Slowest packet = 72072
Flit latency average = 19.7393
	minimum = 7
	maximum = 38
Slowest flit = 72072
Fragmentation average = 0
	minimum = 0
	maximum = 0
Injected packet rate average = 0.098
	minimum = 0.086 (at node 15)
	maximum = 0.107 (at node 1)
Accepted packet rate average = 0.0980625
	minimum = 0.083 (at node 4)
	maximum = 0.116 (at node 10)
Injected flit rate average = 0.098
	minimum = 0.086 (at node 15)
	maximum = 0.107 (at node 1)
Accepted flit rate average= 0.0980625
	minimum = 0.083 (at node 4)
	maximum = 0.116 (at node 10)
Injected packet length average = 1
Accepted packet length average = 1
Total in-flight flits = 29 (29 measured)
latency change    = 0.00491252
throughput change = 0.0133843
Class 0:
Packet latency average = 19.7663
	minimum = 7
	maximum = 39
Network latency average = 19.7663
	minimum = 7
	maximum = 39
Slowest packet = 73584
Flit latency average = 19.7871
	minimum = 7
	maximum = 39
Slowest flit = 73584
Fragmentation average = 0
	minimum = 0
	maximum = 0
Injected packet rate average = 0.0977083
	minimum = 0.0846667 (at node 9)
	maximum = 0.105333 (at node 3)
Accepted packet rate average = 0.097875
	minimum = 0.0886667 (at node 2)
	maximum = 0.110667 (at node 10)
Injected flit rate average = 0.0977083
	minimum = 0.0846667 (at node 9)
	maximum = 0.105333 (at node 3)
Accepted flit rate average= 0.097875
	minimum = 0.0886667 (at node 2)
	maximum = 0.110667 (at node 10)
Injected packet length average = 1
Accepted packet length average = 1
Total in-flight flits = 26 (26 measured)
latency change    = 0.00300137
throughput change = 0.00191571
Class 0:
Packet latency average = 19.7316
	minimum = 7
[...]
Flit latency average = 19.6968
	minimum = 7
	maximum = 38
Slowest flit = 236834
Fragmentation average = 0
	minimum = 0
	maximum = 0
Injected packet rate average = 0.101625
	minimum = 0.082 (at node 3)
	maximum = 0.126 (at node 13)
Accepted packet rate average = 0.101
	minimum = 0.082 (at node 3)
	maximum = 0.122 (at node 2)
Injected flit rate average = 0.101625
	minimum = 0.082 (at node 3)
	maximum = 0.126 (at node 13)
Accepted flit rate average= 0.101
	minimum = 0.082 (at node 3)
	maximum = 0.122 (at node 2)
Injected packet length average = 1
Accepted packet length average = 1
Total in-flight flits = 41 (41 measured)
latency change    = 0.0251486
throughput change = 0.0049505
Class 0:
Packet latency average = 19.8986
	minimum = 7
	maximum = 41
Network latency average = 19.8979
	minimum = 7
	maximum = 41
Slowest packet = 237017
Flit latency average = 19.9531
	minimum = 7
	maximum = 41
Slowest flit = 237017
Fragmentation average = 0
	minimum = 0
	maximum = 0
Injected packet rate average = 0.102375
	minimum = 0.088 (at node 7)
	maximum = 0.117 (at node 13)
Accepted packet rate average = 0.102688
	minimum = 0.079 (at node 15)
	maximum = 0.123 (at node 2)
Injected flit rate average = 0.102375
	minimum = 0.088 (at node 7)
	maximum = 0.117 (at node 13)
Accepted flit rate average= 0.102688
	minimum = 0.079 (at node 15)
	maximum = 0.123 (at node 2)
Injected packet length average = 1
Accepted packet length average = 1
Total in-flight flits = 31 (31 measured)
latency change    = 0.0164497
throughput change = 0.0164334
Class 0:
Packet latency average = 19.7311
	minimum = 7
	maximum = 41
Network latency average = 19.7307
	minimum = 7
	maximum = 41
Slowest packet = 237017
Flit latency average = 19.7705
	minimum = 7
	maximum = 41
Slowest flit = 237017
Fragmentation average = 0
	minimum = 0
	maximum = 0
Injected packet rate average = 0.101042
	minimum = 0.0826667 (at node 14)
	maximum = 0.112667 (at node 1)
Accepted packet rate average = 0.101292
	minimum = 0.0813333 (at node 15)
	maximum = 0.116 (at node 11)
Injected flit rate average = 0.101042
	minimum = 0.0826667 (at node 14)
	maximum = 0.112667 (at node 1)
Accepted flit rate average= 0.101292
	minimum = 0.0813333 (at node 15)
	maximum = 0.116 (at node 11)
Injected packet length average = 1
Accepted packet length average = 1
Total in-flight flits = 30 (30 measured)
latency change    = 0.00848722
throughput change = 0.0137803
Draining all recorded packets ...
Draining remaining packets ...
Time taken is 3058 cycles
Class 0:
Packet latency average = 19.82
	minimum = 7
	maximum = 40
Network latency average = 19.8162
	minimum = 7
	maximum = 40
Slowest packet = 239103
Flit latency average = 19.8162
	minimum = 7
	maximum = 40
Slowest flit = 239103
Fragmentation average = 0
	minimum = 0
	maximum = 0
Injected packet rate average = 0.101625
	minimum = 0.044 (at node 6)
	maximum = 0.144 (at node 15)
Accepted packet rate average = 0.098625
	minimum = 0.08 (at node 13)
	maximum = 0.13 (at node 11)
Injected flit rate average = 0.101625
	minimum = 0.044 (at node 6)
	maximum = 0.144 (at node 15)
Accepted flit rate average= 0.098625
	minimum = 0.08 (at node 13)
	maximum = 0.13 (at node 11)
Injected packet length average = 1
Accepted packet length average = 1
Total in-flight flits = 24 (0 measured)
latency change    = 1
throughput change = 1
Class 0:
Packet latency average = 19.6138
	minimum = 7
	maximum = 40
Network latency average = 19.6119
	minimum = 7
	maximum = 40
Slowest packet = 239103
Flit latency average = 19.6119
	minimum = 7
	maximum = 40
Slowest flit = 239103
Fragmentation average = 0
	minimum = 0
	maximum = 0
Injected packet rate average = 0.1025
	minimum = 0.065 (at node 6)
	maximum = 0.122 (at node 15)
Accepted packet rate average = 0.100812
	minimum = 0.084 (at node 6)
	maximum = 0.126 (at node 11)
Injected flit rate average = 0.1025
	minimum = 0.065 (at node 6)
	maximum = 0.122 (at node 15)
Accepted flit rate average= 0.100812
	minimum = 0.084 (at node 6)
	maximum = 0.126 (at node 11)
Injected packet length average = 1
Accepted packet length average = 1
Total in-flight flits = 27 (0 measured)
latency change    = 0.0105162
throughput change = 0.0216987
Class 0:
Packet latency average = 19.6331
	minimum = 7
	maximum = 37
Network latency average = 19.6317
	minimum = 7
	maximum = 37
Slowest packet = 240313
Flit latency average = 19.6317
	minimum = 7
	maximum = 37
Slowest flit = 240313
Fragmentation average = 0
	minimum = 0
	maximum = 0
Injected packet rate average = 0.09475
	minimum = 0.07 (at node 1)
	maximum = 0.108 (at node 9)
Accepted packet rate average = 0.093
	minimum = 0.068 (at node 11)
	maximum = 0.118 (at node 6)
Injected flit rate average = 0.09475
	minimum = 0.07 (at node 1)
	maximum = 0.108 (at node 9)
Accepted flit rate average= 0.093
	minimum = 0.068 (at node 11)
	maximum = 0.118 (at node 6)
Injected packet length average = 1
Accepted packet length average = 1
Total in-flight flits = 41 (0 measured)
latency change    = 0.000983104
throughput change = 0.0840054
Warmed up ...Time used is 1500 cycles
Class 0:
Packet latency average = 19.651
	minimum = 7
	maximum = 38
Network latency average = 19.651
	minimum = 7
	maximum = 38
Slowest packet = 241773
Flit latency average = 19.7531
	minimum = 7
	maximum = 38
Slowest flit = 241773
Fragmentation average = 0
	minimum = 0
	maximum = 0
Injected packet rate average = 0.099375
	minimum = 0.084 (at node 2)
	maximum = 0.12 (at node 6)
Accepted packet rate average = 0.10075
	minimum = 0.078 (at node 6)
	maximum = 0.144 (at node 10)
Injected flit rate average = 0.099375
	minimum = 0.084 (at node 2)
	maximum = 0.12 (at node 6)
Accepted flit rate average= 0.10075
	minimum = 0.078 (at node 6)
	maximum = 0.144 (at node 10)
Injected packet length average = 1
Accepted packet length average = 1
Total in-flight flits = 30 (30 measured)
latency change    = 0.000911704
throughput change = 0.0769231
Class 0:
Packet latency average = 19.6241
	minimum = 7
	maximum = 38
Network latency average = 19.6241
	minimum = 7
	maximum = 38
Slowest packet = 241773
Flit latency average = 19.6753
	minimum = 7
	maximum = 38
Slowest flit = 241773
Fragmentation average = 0
	minimum = 0
	maximum = 0
Injected packet rate average = 0.101312
	minimum = 0.087 (at node 9)
	maximum = 0.122 (at node 6)
Accepted packet rate average = 0.101813
	minimum = 0.075 (at node 6)
	maximum = 0.126 (at node 10)
Injected flit rate average = 0.101312
	minimum = 0.087 (at node 9)
	maximum = 0.122 (at node 6)
Accepted flit rate average= 0.101813
	minimum = 0.075 (at node 6)
	maximum = 0.126 (at node 10)
Injected packet length average = 1
Accepted packet length average = 1
Total in-flight flits = 33 (33 measured)
latency change    = 0.00137204
throughput change = 0.0104359
Class 0:
Packet latency average = 19.708
	minimum = 7
	maximum = 38
Network latency average = 19.708
	minimum = 7
	maximum = 38
Slowest packet = 241773
Flit latency average = 19.7405
	minimum = 7
	maximum = 38
Slowest flit = 241773
Fragmentation average = 0
	minimum = 0
	maximum = 0
Injected packet rate average = 0.101875
	minimum = 0.0913333 (at node 9)
	maximum = 0.114667 (at node 6)
Accepted packet rate average = 0.102458
	minimum = 0.0866667 (at node 8)
	maximum = 0.12 (at node 0)
Injected flit rate average = 0.101875
	minimum = 0.0913333 (at node 9)
	maximum = 0.114667 (at node 6)
Accepted flit rate average= 0.102458
	minimum = 0.0866667 (at node 8)
	maximum = 0.12 (at node 0)
Injected packet length average = 1
Accepted packet length average = 1
Total in-flight flits = 27 (27 measured)
latency change    = 0.00426059
throughput change = 0.00630338
Class 0:
Packet latency average = 19.6287
	minimum = 7
	maximum = 40
Network latency average = 19.6283
	minimum = 7
	maximum = 40
Slowest packet = 244154
Flit latency average = 19.6539
	minimum = 7
	maximum = 40
Slowest flit = 244154
Fragmentation average = 0
	minimum = 0
	maximum = 0
Injected packet rate average = 0.101531
	minimum = 0.0935 (at node 15)
	maximum = 0.1105 (at node 1)
Accepted packet rate average = 0.101844
	minimum = 0.0855 (at node 8)
	maximum = 0.1185 (at node 10)
Injected flit rate average = 0.101531
	minimum = 0.0935 (at node 15)
	maximum = 0.1105 (at node 1)
Accepted flit rate average= 0.101844
	minimum = 0.0855 (at node 8)
	maximum = 0.1185 (at node 10)
Injected packet length average = 1
Accepted packet length average = 1
Total in-flight flits = 31 (31 measured)
latency change    = 0.00404367
throughput change = 0.00603457
Draining all recorded packets ...
Draining remaining packets ...
Time taken is 3556 cycles
Class 0:
Packet latency average = 19.6125
	minimum = 7
	maximum = 39
Network latency average = 19.6112
	minimum = 7
	maximum = 39
Slowest packet = 244452
Flit latency average = 19.6112
	minimum = 7
	maximum = 39
Slowest flit = 244452
Fragmentation average = 0
	minimum = 0
	maximum = 0
Injected packet rate average = 0.097375
	minimum = 0.074 (at node 15)
	maximum = 0.12 (at node 6)
Accepted packet rate average = 0.093875
	minimum = 0.074 (at node 13)
	maximum = 0.112 (at node 15)
Injected flit rate average = 0.097375
	minimum = 0.074 (at node 15)
	maximum = 0.12 (at node 6)
Accepted flit rate average= 0.093875
	minimum = 0.074 (at node 13)
	maximum = 0.112 (at node 15)
Injected packet length average = 1
Accepted packet length average = 1
Total in-flight flits = 28 (0 measured)
latency change    = 1
throughput change = 1
Class 0:
Packet latency average = 19.5423
	minimum = 7
	maximum = 39
Network latency average = 19.5416
	minimum = 7
	maximum = 39
Slowest packet = 244452
Flit latency average = 19.5416
	minimum = 7
	maximum = 39
Slowest flit = 244452
Fragmentation average = 0
	minimum = 0
	maximum = 0
Injected packet rate average = 0.09925
	minimum = 0.073 (at node 15)
	maximum = 0.115 (at node 11)
Accepted packet rate average = 0.097625
	minimum = 0.082 (at node 11)
	maximum = 0.113 (at node 10)
Injected flit rate average = 0.09925
	minimum = 0.073 (at node 15)
	maximum = 0.115 (at node 11)
Accepted flit rate average= 0.097625
	minimum = 0.082 (at node 11)
	maximum = 0.113 (at node 10)
Injected packet length average = 1
Accepted packet length average = 1
Total in-flight flits = 26 (0 measured)
latency change    = 0.00359545
throughput change = 0.0384123
Class 0:
Packet latency average = 19.7399
	minimum = 7
	maximum = 39
Network latency average = 19.7399
	minimum = 7
	maximum = 39
Slowest packet = 246199
Flit latency average = 19.7399
	minimum = 7
	maximum = 39
Slowest flit = 246199
Fragmentation average = 0
	minimum = 0
	maximum = 0
Injected packet rate average = 0.09975
	minimum = 0.074 (at node 8)
	maximum = 0.132 (at node 10)
Accepted packet rate average = 0.099
	minimum = 0.076 (at node 0)
	maximum = 0.118 (at node 4)
Injected flit rate average = 0.09975
	minimum = 0.074 (at node 8)
	maximum = 0.132 (at node 10)
Accepted flit rate average= 0.099
	minimum = 0.076 (at node 0)
	maximum = 0.118 (at node 4)
Injected packet length average = 1
Accepted packet length average = 1
Total in-flight flits = 32 (0 measured)
latency change    = 0.0100125
throughput change = 0.0138889
Warmed up ...Time used is 1500 cycles
Class 0:
Packet latency average = 19.3752
	minimum = 7
	maximum = 37
Network latency average = 19.3752
	minimum = 7
	maximum = 37
Slowest packet = 246874
Flit latency average = 19.5457
	minimum = 7
	maximum = 37
Slowest flit = 246747
Fragmentation average = 0
	minimum = 0
	maximum = 0
Injected packet rate average = 0.10425
	minimum = 0.078 (at node 9)
	maximum = 0.13 (at node 4)
Accepted packet rate average = 0.102625
	minimum = 0.082 (at node 11)
	maximum = 0.122 (at node 1)
Injected flit rate average = 0.10425
	minimum = 0.078 (at node 9)
	maximum = 0.13 (at node 4)
Accepted flit rate average= 0.102625
	minimum = 0.082 (at node 11)
	maximum = 0.122 (at node 1)
Injected packet length average = 1
Accepted packet length average = 1
Total in-flight flits = 45 (45 measured)
latency change    = 0.0188252
throughput change = 0.0353228
Class 0:
Packet latency average = 19.6001
	minimum = 7
	maximum = 40
Network latency average = 19.5995
	minimum = 7
	maximum = 40
Slowest packet = 247865
Flit latency average = 19.6805
	minimum = 7
	maximum = 40
Slowest flit = 247865
Fragmentation average = 0
	minimum = 0
	maximum = 0
Injected packet rate average = 0.10225
	minimum = 0.089 (at node 6)
	maximum = 0.124 (at node 4)
Accepted packet rate average = 0.1025
	minimum = 0.08 (at node 3)
	maximum = 0.129 (at node 1)
Injected flit rate average = 0.10225
	minimum = 0.089 (at node 6)
	maximum = 0.124 (at node 4)
Accepted flit rate average= 0.1025
	minimum = 0.08 (at node 3)
	maximum = 0.129 (at node 1)
Injected packet length average = 1
Accepted packet length average = 1
Total in-flight flits = 28 (28 measured)
latency change    = 0.0114778
throughput change = 0.00121951
Class 0:
Packet latency average = 19.5548
	minimum = 7
	maximum = 40
Network latency average = 19.5544
	minimum = 7
	maximum = 40
Slowest packet = 247865
Flit latency average = 19.6098
	minimum = 7
	maximum = 40
Slowest flit = 247865
Fragmentation average = 0
	minimum = 0
	maximum = 0
Injected packet rate average = 0.101083
	minimum = 0.092 (at node 10)
	maximum = 0.118 (at node 5)
Accepted packet rate average = 0.100917
	minimum = 0.086 (at node 3)
	maximum = 0.116667 (at node 1)
Injected flit rate average = 0.101083
	minimum = 0.092 (at node 10)
	maximum = 0.118 (at node 5)
Accepted flit rate average= 0.100917
	minimum = 0.086 (at node 3)
	maximum = 0.116667 (at node 1)
Injected packet length average = 1
Accepted packet length average = 1
Total in-flight flits = 36 (36 measured)
latency change    = 0.00231721
throughput change = 0.0156895
Draining all recorded packets ...
Draining remaining packets ...
Time taken is 3061 cycles
Class 0:
Packet latency average = 18.86
	minimum = 7
	maximum = 38
Network latency average = 18.86
	minimum = 7
	maximum = 38
Slowest packet = 249307
Flit latency average = 18.86
	minimum = 7
	maximum = 38
Slowest flit = 249307
Fragmentation average = 0
	minimum = 0
	maximum = 0
Injected packet rate average = 0.1045
	minimum = 0.08 (at node 4)
	maximum = 0.12 (at node 7)
Accepted packet rate average = 0.099125
	minimum = 0.066 (at node 5)
	maximum = 0.13 (at node 13)
Injected flit rate average = 0.1045
	minimum = 0.08 (at node 4)
	maximum = 0.12 (at node 7)
Accepted flit rate average= 0.099125
	minimum = 0.066 (at node 5)
	maximum = 0.13 (at node 13)
Injected packet length average = 1
Accepted packet length average = 1
Total in-flight flits = 43 (0 measured)
latency change    = 1
throughput change = 1
Class 0:
Packet latency average = 19.2744
	minimum = 7
	maximum = 45
Network latency average = 19.2744
	minimum = 7
	maximum = 45
Slowest packet = 250518
Flit latency average = 19.2744
	minimum = 7
	maximum = 45
Slowest flit = 250518
Fragmentation average = 0
	minimum = 0
	maximum = 0
Injected packet rate average = 0.0996875
	minimum = 0.087 (at node 4)
	maximum = 0.11 (at node 7)
Accepted packet rate average = 0.0979375
	minimum = 0.075 (at node 0)
	maximum = 0.117 (at node 13)
Injected flit rate average = 0.0996875
	minimum = 0.087 (at node 4)
	maximum = 0.11 (at node 7)
Accepted flit rate average= 0.0979375
	minimum = 0.075 (at node 0)
	maximum = 0.117 (at node 13)
Injected packet length average = 1
Accepted packet length average = 1
Total in-flight flits = 28 (0 measured)
latency change    = 0.0214992
throughput change = 0.0121251
Class 0:
Packet latency average = 20.0974
	minimum = 7
	maximum = 39
Network latency average = 20.0974
	minimum = 7
	maximum = 39
Slowest packet = 250884
Flit latency average = 20.0974
	minimum = 7
	maximum = 39
Slowest flit = 250884
Fragmentation average = 0
	minimum = 0
	maximum = 0
Injected packet rate average = 0.101
	minimum = 0.084 (at node 2)
	maximum = 0.118 (at node 0)
Accepted packet rate average = 0.101375
	minimum = 0.074 (at node 11)
	maximum = 0.128 (at node 4)
Injected flit rate average = 0.101
	minimum = 0.084 (at node 2)
	maximum = 0.118 (at node 0)
Accepted flit rate average= 0.101375
	minimum = 0.074 (at node 11)
	maximum = 0.128 (at node 4)
Injected packet length average = 1
Accepted packet length average = 1
Total in-flight flits = 25 (0 measured)
latency change    = 0.0409506
throughput change = 0.0339088
Warmed up ...Time used is 1500 cycles
Class 0:
Packet latency average = 19.4696
	minimum = 7
	maximum = 38
Network latency average = 19.4684
	minimum = 7
	maximum = 38
Slowest packet = 251953
Flit latency average = 19.5166
	minimum = 7
	maximum = 38
Slowest flit = 251953
Fragmentation average = 0
	minimum = 0
	maximum = 0
Injected packet rate average = 0.103
	minimum = 0.082 (at node 6)
	maximum = 0.124 (at node 11)
Accepted packet rate average = 0.101875
	minimum = 0.076 (at node 3)
	maximum = 0.126 (at node 2)
Injected flit rate average = 0.103
	minimum = 0.082 (at node 6)
	maximum = 0.124 (at node 11)
Accepted flit rate average= 0.101875
	minimum = 0.076 (at node 3)
	maximum = 0.126 (at node 2)
Injected packet length average = 1
Accepted packet length average = 1
Total in-flight flits = 34 (34 measured)
latency change    = 0.0322446
throughput change = 0.00490798
Class 0:
Packet latency average = 19.3928
	minimum = 7
	maximum = 38
Network latency average = 19.3921
	minimum = 7
	maximum = 38
Slowest packet = 251953
Flit latency average = 19.4174
	minimum = 7
	maximum = 38
Slowest flit = 251953
Fragmentation average = 0
	minimum = 0
	maximum = 0
Injected packet rate average = 0.1025
	minimum = 0.081 (at node 6)
	maximum = 0.122 (at node 9)
Accepted packet rate average = 0.101813
	minimum = 0.089 (at node 15)
	maximum = 0.119 (at node 2)
Injected flit rate average = 0.1025
	minimum = 0.081 (at node 6)
	maximum = 0.122 (at node 9)
Accepted flit rate average= 0.101813
	minimum = 0.089 (at node 15)
	maximum = 0.119 (at node 2)
Injected packet length average = 1
Accepted packet length average = 1
Total in-flight flits = 36 (36 measured)
latency change    = 0.00396293
throughput change = 0.000613874
Class 0:
Packet latency average = 19.4994
	minimum = 7
	maximum = 38
Network latency average = 19.499
	minimum = 7
	maximum = 38
Slowest packet = 251953
Flit latency average = 19.5147
	minimum = 7
	maximum = 38
Slowest flit = 251953
Fragmentation average = 0
	minimum = 0
	maximum = 0
Injected packet rate average = 0.102292
	minimum = 0.0886667 (at node 6)
	maximum = 0.117333 (at node 9)
Accepted packet rate average = 0.102083
	minimum = 0.0913333 (at node 1)
	maximum = 0.12 (at node 7)
Injected flit rate average = 0.102292
	minimum = 0.0886667 (at node 6)
	maximum = 0.117333 (at node 9)
Accepted flit rate average= 0.102083
	minimum = 0.0913333 (at node 1)
	maximum = 0.12 (at node 7)
Injected packet length average = 1
Accepted packet length average = 1
Total in-flight flits = 30 (30 measured)
latency change    = 0.00546753
throughput change = 0.00265306
Draining all recorded packets ...
Draining remaining packets ...
Time taken is 3065 cycles
====== Overall Traffic Statistics ======
====== Traffic class 0 ======
Packet latency average = 19.6443 (50 samples)
	minimum = 7 (50 samples)
	maximum = 40.28 (50 samples)
Network latency average = 19.6436 (50 samples)
	minimum = 7 (50 samples)
	maximum = 40.28 (50 samples)
Flit latency average = 19.6701 (50 samples)
	minimum = 7 (50 samples)
	maximum = 40.34 (50 samples)
Fragmentation average = 0 (50 samples)
	minimum = 0 (50 samples)
	maximum = 0 (50 samples)
Injected packet rate average = 0.100324 (50 samples)
	minimum = 0.0882033 (50 samples)
	maximum = 0.11356 (50 samples)
Accepted packet rate average = 0.100345 (50 samples)
	minimum = 0.08639 (50 samples)
	maximum = 0.11471 (50 samples)
Injected flit rate average = 0.100324 (50 samples)
	minimum = 0.0882033 (50 samples)
	maximum = 0.11356 (50 samples)
Accepted flit rate average = 0.100345 (50 samples)
	minimum = 0.08639 (50 samples)
	maximum = 0.11471 (50 samples)
Injected packet size average = 1 (50 samples)
Accepted packet size average = 1 (50 samples)
Hops average = 3.50075 (50 samples)
Total run time 9.22733
