BEGIN Configuration File: /tmp/tmp433a4s0t.cfg
topology = mesh;
k = 4;
n = 2;
routing_function = planar_adapt;
num_vcs = 4;
vc_buf_size = 4;
wait_for_tail_credit = 1;
vc_allocator = islip;
sw_allocator = islip;
alloc_iters = 1;
credit_delay = 2;
routing_delay = 1;
vc_alloc_delay = 1;
sw_alloc_delay = 1;
input_speedup = 2;
output_speedup = 1;
internal_speedup = 1.0;
traffic = uniform;
packet_size = 1;
sim_type = latency;
injection_rate = 0.01;
warmup_periods = 3;
sample_period = 500;
sim_count = 50;
seed = 0;
link_failures = 7;
fail_seed = 101;

END Configuration File: /tmp/tmp433a4s0t.cfg
failure at node 14, channel 0 (1/7)
failure at node 12, channel 0 (2/7)
failure at node 4, channel 2 (3/7)
failure at node 11, channel 1 (4/7)
failure at node 5, channel 3 (5/7)
failure at node 9, channel 0 (6/7)
failure at node 8, channel 3 (7/7)
Class 0:
Packet latency average = 22.1605
	minimum = 7
	maximum = 39
Network latency average = 22.1605
	minimum = 7
	maximum = 39
Slowest packet = 69
Flit latency average = 22.1605
	minimum = 7
	maximum = 39
Slowest flit = 69
Fragmentation average = 0
	minimum = 0
	maximum = 0
Injected packet rate average = 0.010375
	minimum = 0.004 (at node 5)
	maximum = 0.016 (at node 9)
Accepted packet rate average = 0.010125
	minimum = 0.006 (at node 0)
	maximum = 0.014 (at node 7)
Injected flit rate average = 0.010375
	minimum = 0.004 (at node 5)
	maximum = 0.016 (at node 9)
Accepted flit rate average= 0.010125
	minimum = 0.006 (at node 0)
	maximum = 0.014 (at node 7)
Injected packet length average = 1
Accepted packet length average = 1
Total in-flight flits = 2 (0 measured)
latency change    = 1
throughput change = 1
Class 0:
Packet latency average = 22.4248
	minimum = 7
	maximum = 50
Network latency average = 22.4248
	minimum = 7
	maximum = 50
Slowest packet = 101
Flit latency average = 22.4248
	minimum = 7
	maximum = 50
Slowest flit = 101
Fragmentation average = 0
	minimum = 0
	maximum = 0
Injected packet rate average = 0.00975
	minimum = 0.004 (at node 11)
	maximum = 0.014 (at node 13)
Accepted packet rate average = 0.0095625
	minimum = 0.005 (at node 11)
	maximum = 0.016 (at node 9)
Injected flit rate average = 0.00975
	minimum = 0.004 (at node 11)
	maximum = 0.014 (at node 13)
Accepted flit rate average= 0.0095625
	minimum = 0.005 (at node 11)
	maximum = 0.016 (at node 9)
Injected packet length average = 1
Accepted packet length average = 1
Total in-flight flits = 3 (0 measured)
latency change    = 0.0117879
throughput change = 0.0588235
Class 0:
Packet latency average = 23.0822
	minimum = 7
	maximum = 47
Network latency average = 23.0822
	minimum = 7
	maximum = 47
Slowest packet = 158
Flit latency average = 23.0822
	minimum = 7
	maximum = 47
Slowest flit = 158
Fragmentation average = 0
	minimum = 0
	maximum = 0
Injected packet rate average = 0.00925
	minimum = 0.002 (at node 11)
	maximum = 0.016 (at node 10)
Accepted packet rate average = 0.009125
	minimum = 0.002 (at node 14)
	maximum = 0.018 (at node 7)
Injected flit rate average = 0.00925
	minimum = 0.002 (at node 11)
	maximum = 0.016 (at node 10)
Accepted flit rate average= 0.009125
	minimum = 0.002 (at node 14)
	maximum = 0.018 (at node 7)
Injected packet length average = 1
Accepted packet length average = 1
Total in-flight flits = 4 (0 measured)
latency change    = 0.0284789
throughput change = 0.0479452
Warmed up ...Time used is 1500 cycles
Class 0:
Packet latency average = 23.9333
	minimum = 7
	maximum = 48
Network latency average = 23.9333
	minimum = 7
	maximum = 48
Slowest packet = 234
Flit latency average = 24.0886
	minimum = 7
	maximum = 48
Slowest flit = 234
Fragmentation average = 0
	minimum = 0
	maximum = 0
Injected packet rate average = 0.00975
	minimum = 0.004 (at node 3)
	maximum = 0.018 (at node 8)
Accepted packet rate average = 0.009875
	minimum = 0.002 (at node 9)
	maximum = 0.016 (at node 2)
Injected flit rate average = 0.00975
	minimum = 0.004 (at node 3)
	maximum = 0.018 (at node 8)
Accepted flit rate average= 0.009875
	minimum = 0.002 (at node 9)
	maximum = 0.016 (at node 2)
Injected packet length average = 1
Accepted packet length average = 1
Total in-flight flits = 3 (3 measured)
latency change    = 0.035563
throughput change = 0.0759494
Class 0:
Packet latency average = 22.5229
	minimum = 7
	maximum = 48
Network latency average = 22.5229
	minimum = 7
	maximum = 48
Slowest packet = 234
Flit latency average = 22.6369
	minimum = 7
	maximum = 48
Slowest flit = 234
Fragmentation average = 0
	minimum = 0
	maximum = 0
Injected packet rate average = 0.0096875
	minimum = 0.005 (at node 7)
	maximum = 0.016 (at node 13)
Accepted packet rate average = 0.0098125
	minimum = 0.004 (at node 9)
	maximum = 0.015 (at node 5)
Injected flit rate average = 0.0096875
	minimum = 0.005 (at node 7)
	maximum = 0.016 (at node 13)
Accepted flit rate average= 0.0098125
	minimum = 0.004 (at node 9)
	maximum = 0.015 (at node 5)
Injected packet length average = 1
Accepted packet length average = 1
Total in-flight flits = 2 (2 measured)
latency change    = 0.0626233
throughput change = 0.00636943
Class 0:
Packet latency average = 22.865
	minimum = 7
	maximum = 55
Network latency average = 22.865
	minimum = 7
	maximum = 55
Slowest packet = 387
Flit latency average = 22.9336
	minimum = 7
	maximum = 55
Slowest flit = 387
Fragmentation average = 0
	minimum = 0
	maximum = 0
Injected packet rate average = 0.00991667
	minimum = 0.00733333 (at node 7)
	maximum = 0.0133333 (at node 13)
Accepted packet rate average = 0.0100417
	minimum = 0.00666667 (at node 6)
	maximum = 0.0153333 (at node 15)
Injected flit rate average = 0.00991667
	minimum = 0.00733333 (at node 7)
	maximum = 0.0133333 (at node 13)
Accepted flit rate average= 0.0100417
	minimum = 0.00666667 (at node 6)
	maximum = 0.0153333 (at node 15)
Injected packet length average = 1
Accepted packet length average = 1
Total in-flight flits = 1 (1 measured)
latency change    = 0.0149619
throughput change = 0.0228216
Class 0:
Packet latency average = 22.6783
	minimum = 7
	maximum = 55
Network latency average = 22.6783
	minimum = 7
	maximum = 55
Slowest packet = 387
Flit latency average = 22.7327
	minimum = 7
	maximum = 55
Slowest flit = 387
Fragmentation average = 0
	minimum = 0
	maximum = 0
Injected packet rate average = 0.00990625
	minimum = 0.0075 (at node 1)
	maximum = 0.013 (at node 8)
Accepted packet rate average = 0.0099375
	minimum = 0.0075 (at node 6)
	maximum = 0.0145 (at node 15)
Injected flit rate average = 0.00990625
	minimum = 0.0075 (at node 1)
	maximum = 0.013 (at node 8)
Accepted flit rate average= 0.0099375
	minimum = 0.0075 (at node 6)
	maximum = 0.0145 (at node 15)
Injected packet length average = 1
Accepted packet length average = 1
Total in-flight flits = 3 (3 measured)
latency change    = 0.00822966
throughput change = 0.0104822
Class 0:
Packet latency average = 22.6658
	minimum = 7
	maximum = 55
Network latency average = 22.6658
	minimum = 7
	maximum = 55
Slowest packet = 387
Flit latency average = 22.7109
	minimum = 7
	maximum = 55
Slowest flit = 387
Fragmentation average = 0
	minimum = 0
	maximum = 0
Injected packet rate average = 0.009625
	minimum = 0.0072 (at node 1)
	maximum = 0.0124 (at node 11)
Accepted packet rate average = 0.0096
	minimum = 0.0072 (at node 10)
	maximum = 0.0128 (at node 15)
Injected flit rate average = 0.009625
	minimum = 0.0072 (at node 1)
	maximum = 0.0124 (at node 11)
Accepted flit rate average= 0.0096
	minimum = 0.0072 (at node 10)
	maximum = 0.0128 (at node 15)
Injected packet length average = 1
Accepted packet length average = 1
Total in-flight flits = 5 (5 measured)
latency change    = 0.000553895
throughput change = 0.0351563
Draining all recorded packets ...
Draining remaining packets ...
Time taken is 4037 cycles
Class 0:
Packet latency average = 22.0417
	minimum = 7
	maximum = 56
Network latency average = 22.0417
	minimum = 7
	maximum = 56
Slowest packet = 632
Flit latency average = 22.0417
	minimum = 7
	maximum = 56
Slowest flit = 632
Fragmentation average = 0
	minimum = 0
	maximum = 0
Injected packet rate average = 0.009375
	minimum = 0.004 (at node 4)
	maximum = 0.018 (at node 10)
Accepted packet rate average = 0.009
	minimum = 0.004 (at node 4)
	maximum = 0.018 (at node 10)
Injected flit rate average = 0.009375
	minimum = 0.004 (at node 4)
	maximum = 0.018 (at node 10)
Accepted flit rate average= 0.009
	minimum = 0.004 (at node 4)
	maximum = 0.018 (at node 10)
Injected packet length average = 1
Accepted packet length average = 1
Total in-flight flits = 3 (0 measured)
latency change    = 1
throughput change = 1
Class 0:
Packet latency average = 22.5833
	minimum = 7
	maximum = 56
Network latency average = 22.5833
	minimum = 7
	maximum = 56
Slowest packet = 632
Flit latency average = 22.5833
	minimum = 7
	maximum = 56
Slowest flit = 632
Fragmentation average = 0
	minimum = 0
	maximum = 0
Injected packet rate average = 0.0090625
	minimum = 0.005 (at node 4)
	maximum = 0.013 (at node 1)
Accepted packet rate average = 0.009
	minimum = 0.006 (at node 2)
	maximum = 0.016 (at node 8)
Injected flit rate average = 0.0090625
	minimum = 0.005 (at node 4)
	maximum = 0.013 (at node 1)
Accepted flit rate average= 0.009
	minimum = 0.006 (at node 2)
	maximum = 0.016 (at node 8)
Injected packet length average = 1
Accepted packet length average = 1
Total in-flight flits = 1 (0 measured)
latency change    = 0.0239852
throughput change = 0
Class 0:
Packet latency average = 24.0247
	minimum = 7
	maximum = 53
Network latency average = 24.0247
	minimum = 7
	maximum = 53
Slowest packet = 827
Flit latency average = 24.0247
	minimum = 7
	maximum = 53
Slowest flit = 827
Fragmentation average = 0
	minimum = 0
	maximum = 0
Injected packet rate average = 0.01075
	minimum = 0.002 (at node 2)
	maximum = 0.02 (at node 15)
Accepted packet rate average = 0.010125
	minimum = 0.004 (at node 14)
	maximum = 0.02 (at node 12)
Injected flit rate average = 0.01075
	minimum = 0.002 (at node 2)
	maximum = 0.02 (at node 15)
Accepted flit rate average= 0.010125
	minimum = 0.004 (at node 14)
	maximum = 0.02 (at node 12)
Injected packet length average = 1
Accepted packet length average = 1
Total in-flight flits = 6 (0 measured)
latency change    = 0.0599949
throughput change = 0.111111
Warmed up ...Time used is 1500 cycles
Class 0:
Packet latency average = 22.8116
	minimum = 7
	maximum = 42
Network latency average = 22.8116
	minimum = 7
	maximum = 42
Slowest packet = 852
Flit latency average = 23.28
	minimum = 7
	maximum = 42
Slowest flit = 842
Fragmentation average = 0
	minimum = 0
	maximum = 0
Injected packet rate average = 0.00925
	minimum = 0.002 (at node 6)
	maximum = 0.016 (at node 4)
Accepted packet rate average = 0.009375
	minimum = 0 (at node 10)
	maximum = 0.02 (at node 7)
Injected flit rate average = 0.00925
	minimum = 0.002 (at node 6)
	maximum = 0.016 (at node 4)
Accepted flit rate average= 0.009375
	minimum = 0 (at node 10)
	maximum = 0.02 (at node 7)
Injected packet length average = 1
Accepted packet length average = 1
Total in-flight flits = 5 (5 measured)
latency change    = 0.053179
throughput change = 0.08
Class 0:
Packet latency average = 21.1558
	minimum = 7
	maximum = 44
Network latency average = 21.1558
	minimum = 7
	maximum = 44
Slowest packet = 951
Flit latency average = 21.4375
	minimum = 7
	maximum = 44
Slowest flit = 951
Fragmentation average = 0
	minimum = 0
	maximum = 0
Injected packet rate average = 0.0100625
	minimum = 0.003 (at node 10)
	maximum = 0.017 (at node 3)
Accepted packet rate average = 0.01
	minimum = 0.005 (at node 0)
	maximum = 0.016 (at node 15)
Injected flit rate average = 0.0100625
	minimum = 0.003 (at node 10)
	maximum = 0.017 (at node 3)
Accepted flit rate average= 0.01
	minimum = 0.005 (at node 0)
	maximum = 0.016 (at node 15)
Injected packet length average = 1
Accepted packet length average = 1
Total in-flight flits = 7 (7 measured)
latency change    = 0.0782644
throughput change = 0.0625
Class 0:
Packet latency average = 21.8826
	minimum = 7
	maximum = 55
Network latency average = 21.8826
	minimum = 7
	maximum = 55
Slowest packet = 1008
Flit latency average = 22.0551
	minimum = 7
	maximum = 55
Slowest flit = 1008
Fragmentation average = 0
	minimum = 0
	maximum = 0
Injected packet rate average = 0.00975
	minimum = 0.006 (at node 0)
	maximum = 0.0186667 (at node 13)
Accepted packet rate average = 0.00983333
	minimum = 0.00466667 (at node 0)
	maximum = 0.014 (at node 15)
Injected flit rate average = 0.00975
	minimum = 0.006 (at node 0)
	maximum = 0.0186667 (at node 13)
Accepted flit rate average= 0.00983333
	minimum = 0.00466667 (at node 0)
	maximum = 0.014 (at node 15)
Injected packet length average = 1
Accepted packet length average = 1
Total in-flight flits = 4 (4 measured)
latency change    = 0.033212
throughput change = 0.0169492
Class 0:
Packet latency average = 21.5434
	minimum = 7
	maximum = 55
Network latency average = 21.5434
	minimum = 7
	maximum = 55
Slowest packet = 1008
Flit latency average = 21.6782
	minimum = 7
	maximum = 55
Slowest flit = 1008
Fragmentation average = 0
	minimum = 0
	maximum = 0
Injected packet rate average = 0.0098125
	minimum = 0.0065 (at node 0)
	maximum = 0.0175 (at node 13)
Accepted packet rate average = 0.00990625
	minimum = 0.0055 (at node 0)
	maximum = 0.0145 (at node 4)
Injected flit rate average = 0.0098125
	minimum = 0.0065 (at node 0)
	maximum = 0.0175 (at node 13)
Accepted flit rate average= 0.00990625
	minimum = 0.0055 (at node 0)
	maximum = 0.0145 (at node 4)
Injected packet length average = 1
Accepted packet length average = 1
Total in-flight flits = 3 (3 measured)
latency change    = 0.015745
throughput change = 0.00736067
Class 0:
Packet latency average = 21.7767
	minimum = 7
	maximum = 55
Network latency average = 21.7767
	minimum = 7
	maximum = 55
Slowest packet = 1008
Flit latency average = 21.8778
	minimum = 7
	maximum = 55
Slowest flit = 1008
Fragmentation average = 0
	minimum = 0
	maximum = 0
Injected packet rate average = 0.010175
	minimum = 0.0076 (at node 0)
	maximum = 0.0168 (at node 13)
Accepted packet rate average = 0.010225
	minimum = 0.0068 (at node 5)
	maximum = 0.0128 (at node 4)
Injected flit rate average = 0.010175
	minimum = 0.0076 (at node 0)
	maximum = 0.0168 (at node 13)
Accepted flit rate average= 0.010225
	minimum = 0.0068 (at node 5)
	maximum = 0.0128 (at node 4)
Injected packet length average = 1
Accepted packet length average = 1
Total in-flight flits = 4 (4 measured)
latency change    = 0.0107118
throughput change = 0.0311736
Draining all recorded packets ...
Draining remaining packets ...
Time taken is 4064 cycles
Class 0:
Packet latency average = 23.4632
	minimum = 7
	maximum = 50
Network latency average = 23.4632
	minimum = 7
	maximum = 50
Slowest packet = 1314
Flit latency average = 23.4632
	minimum = 7
	maximum = 50
Slowest flit = 1314
Fragmentation average = 0
	minimum = 0
	maximum = 0
Injected packet rate average = 0.012375
	minimum = 0.006 (at node 8)
	maximum = 0.018 (at node 9)
Accepted packet rate average = 0.011875
	minimum = 0.004 (at node 10)
	maximum = 0.024 (at node 12)
Injected flit rate average = 0.012375
	minimum = 0.006 (at node 8)
	maximum = 0.018 (at node 9)
Accepted flit rate average= 0.011875
	minimum = 0.004 (at node 10)
	maximum = 0.024 (at node 12)
Injected packet length average = 1
Accepted packet length average = 1
Total in-flight flits = 4 (0 measured)
latency change    = 1
throughput change = 1
Class 0:
Packet latency average = 22.8098
	minimum = 7
	maximum = 51
Network latency average = 22.8098
	minimum = 7
	maximum = 51
Slowest packet = 1432
Flit latency average = 22.8098
	minimum = 7
	maximum = 51
Slowest flit = 1432
Fragmentation average = 0
	minimum = 0
	maximum = 0
Injected packet rate average = 0.0116875
	minimum = 0.009 (at node 8)
	maximum = 0.015 (at node 1)
Accepted packet rate average = 0.0115
	minimum = 0.004 (at node 3)
	maximum = 0.019 (at node 12)
Injected flit rate average = 0.0116875
	minimum = 0.009 (at node 8)
	maximum = 0.015 (at node 1)
Accepted flit rate average= 0.0115
	minimum = 0.004 (at node 3)
	maximum = 0.019 (at node 12)
Injected packet length average = 1
Accepted packet length average = 1
Total in-flight flits = 3 (0 measured)
latency change    = 0.0286445
throughput change = 0.0326087
Class 0:
Packet latency average = 22.6923
	minimum = 7
	maximum = 42
Network latency average = 22.6923
	minimum = 7
	maximum = 42
Slowest packet = 1444
Flit latency average = 22.6923
	minimum = 7
	maximum = 42
Slowest flit = 1444
Fragmentation average = 0
	minimum = 0
	maximum = 0
Injected packet rate average = 0.009625
	minimum = 0.002 (at node 5)
	maximum = 0.02 (at node 7)
Accepted packet rate average = 0.00975
	minimum = 0.002 (at node 10)
	maximum = 0.016 (at node 6)
Injected flit rate average = 0.009625
	minimum = 0.002 (at node 5)
	maximum = 0.02 (at node 7)
Accepted flit rate average= 0.00975
	minimum = 0.002 (at node 10)
	maximum = 0.016 (at node 6)
Injected packet length average = 1
Accepted packet length average = 1
Total in-flight flits = 2 (0 measured)
latency change    = 0.00517686
throughput change = 0.179487
Warmed up ...Time used is 1500 cycles
Class 0:
Packet latency average = 22.3333
	minimum = 7
	maximum = 42
Network latency average = 22.3333
	minimum = 7
	maximum = 42
Slowest packet = 1540
Flit latency average = 22.4
	minimum = 7
	maximum = 42
Slowest flit = 1540
Fragmentation average = 0
	minimum = 0
	maximum = 0
Injected packet rate average = 0.00825
	minimum = 0.004 (at node 0)
	maximum = 0.016 (at node 3)
Accepted packet rate average = 0.008125
	minimum = 0.004 (at node 2)
	maximum = 0.016 (at node 0)
Injected flit rate average = 0.00825
	minimum = 0.004 (at node 0)
	maximum = 0.016 (at node 3)
Accepted flit rate average= 0.008125
	minimum = 0.004 (at node 2)
	maximum = 0.016 (at node 0)
Injected packet length average = 1
Accepted packet length average = 1
Total in-flight flits = 3 (3 measured)
latency change    = 0.0160735
throughput change = 0.2
Class 0:
Packet latency average = 21.7254
	minimum = 7
	maximum = 54
Network latency average = 21.7254
	minimum = 7
	maximum = 54
Slowest packet = 1606
Flit latency average = 21.7639
	minimum = 7
	maximum = 54
Slowest flit = 1606
Fragmentation average = 0
	minimum = 0
	maximum = 0
Injected packet rate average = 0.009125
	minimum = 0.003 (at node 2)
	maximum = 0.013 (at node 5)
Accepted packet rate average = 0.009
	minimum = 0.005 (at node 7)
	maximum = 0.012 (at node 0)
Injected flit rate average = 0.009125
	minimum = 0.003 (at node 2)
	maximum = 0.013 (at node 5)
Accepted flit rate average= 0.009
	minimum = 0.005 (at node 7)
	maximum = 0.012 (at node 0)
Injected packet length average = 1
Accepted packet length average = 1
Total in-flight flits = 4 (4 measured)
latency change    = 0.0279849
throughput change = 0.0972222
Class 0:
Packet latency average = 21.067
	minimum = 7
	maximum = 54
Network latency average = 21.067
	minimum = 7
	maximum = 54
Slowest packet = 1606
Flit latency average = 21.0973
	minimum = 7
	maximum = 54
Slowest flit = 1606
Fragmentation average = 0
	minimum = 0
	maximum = 0
Injected packet rate average = 0.00941667
	minimum = 0.00533333 (at node 2)
	maximum = 0.0133333 (at node 1)
Accepted packet rate average = 0.00941667
	minimum = 0.006 (at node 4)
	maximum = 0.014 (at node 0)
Injected flit rate average = 0.00941667
	minimum = 0.00533333 (at node 2)
	maximum = 0.0133333 (at node 1)
Accepted flit rate average= 0.00941667
	minimum = 0.006 (at node 4)
	maximum = 0.014 (at node 0)
Injected packet length average = 1
Accepted packet length average = 1
Total in-flight flits = 2 (2 measured)
latency change    = 0.0312521
throughput change = 0.0442478
Class 0:
Packet latency average = 21.1656
	minimum = 7
	maximum = 54
Network latency average = 21.1656
	minimum = 7
	maximum = 54
Slowest packet = 1606
Flit latency average = 21.1867
	minimum = 7
	maximum = 54
Slowest flit = 1606
Fragmentation average = 0
	minimum = 0
	maximum = 0
Injected packet rate average = 0.0098125
	minimum = 0.0085 (at node 2)
	maximum = 0.0125 (at node 1)
Accepted packet rate average = 0.009875
	minimum = 0.0055 (at node 4)
	maximum = 0.012 (at node 0)
Injected flit rate average = 0.0098125
	minimum = 0.0085 (at node 2)
	maximum = 0.0125 (at node 1)
Accepted flit rate average= 0.009875
	minimum = 0.0055 (at node 4)
	maximum = 0.012 (at node 0)
Injected packet length average = 1
Accepted packet length average = 1
Total in-flight flits = 0 (0 measured)
latency change    = 0.00466043
throughput change = 0.0464135
Class 0:
Packet latency average = 21.715
	minimum = 7
	maximum = 54
Network latency average = 21.715
	minimum = 7
	maximum = 54
Slowest packet = 1606
Flit latency average = 21.7291
	minimum = 7
	maximum = 54
Slowest flit = 1606
Fragmentation average = 0
	minimum = 0
	maximum = 0
Injected packet rate average = 0.00995
	minimum = 0.0084 (at node 6)
	maximum = 0.012 (at node 12)
Accepted packet rate average = 0.009875
	minimum = 0.0056 (at node 4)
	maximum = 0.0132 (at node 8)
Injected flit rate average = 0.00995
	minimum = 0.0084 (at node 6)
	maximum = 0.012 (at node 12)
Accepted flit rate average= 0.009875
	minimum = 0.0056 (at node 4)
	maximum = 0.0132 (at node 8)
Injected packet length average = 1
Accepted packet length average = 1
Total in-flight flits = 5 (5 measured)
latency change    = 0.0253008
throughput change = 0
Draining all recorded packets ...
Draining remaining packets ...
Time taken is 4045 cycles
Class 0:
Packet latency average = 22.6706
	minimum = 7
	maximum = 51
Network latency average = 22.6706
	minimum = 7
	maximum = 51
Slowest packet = 1999
Flit latency average = 22.6706
	minimum = 7
	maximum = 51
Slowest flit = 1999
Fragmentation average = 0
	minimum = 0
	maximum = 0
Injected packet rate average = 0.011
	minimum = 0.002 (at node 10)
	maximum = 0.018 (at node 2)
Accepted packet rate average = 0.010625
	minimum = 0.002 (at node 15)
	maximum = 0.022 (at node 5)
Injected flit rate average = 0.011
	minimum = 0.002 (at node 10)
	maximum = 0.018 (at node 2)
Accepted flit rate average= 0.010625
	minimum = 0.002 (at node 15)
	maximum = 0.022 (at node 5)
Injected packet length average = 1
Accepted packet length average = 1
Total in-flight flits = 3 (0 measured)
latency change    = 1
throughput change = 1
Class 0:
Packet latency average = 23.1829
	minimum = 7
	maximum = 51
Network latency average = 23.1829
	minimum = 7
	maximum = 51
Slowest packet = 1999
Flit latency average = 23.1829
	minimum = 7
	maximum = 51
Slowest flit = 1999
Fragmentation average = 0
	minimum = 0
	maximum = 0
Injected packet rate average = 0.0104375
	minimum = 0.006 (at node 10)
	maximum = 0.014 (at node 2)
Accepted packet rate average = 0.01025
	minimum = 0.006 (at node 6)
	maximum = 0.017 (at node 11)
Injected flit rate average = 0.0104375
	minimum = 0.006 (at node 10)
	maximum = 0.014 (at node 2)
Accepted flit rate average= 0.01025
	minimum = 0.006 (at node 6)
	maximum = 0.017 (at node 11)
Injected packet length average = 1
Accepted packet length average = 1
Total in-flight flits = 3 (0 measured)
latency change    = 0.0220998
throughput change = 0.0365854
Class 0:
Packet latency average = 21.4944
	minimum = 7
	maximum = 42
Network latency average = 21.4944
	minimum = 7
	maximum = 42
Slowest packet = 2116
Flit latency average = 21.4944
	minimum = 7
	maximum = 42
Slowest flit = 2116
Fragmentation average = 0
	minimum = 0
	maximum = 0
Injected packet rate average = 0.0115
	minimum = 0.002 (at node 14)
	maximum = 0.02 (at node 12)
Accepted packet rate average = 0.011125
	minimum = 0.004 (at node 14)
	maximum = 0.018 (at node 15)
Injected flit rate average = 0.0115
	minimum = 0.002 (at node 14)
	maximum = 0.02 (at node 12)
Accepted flit rate average= 0.011125
	minimum = 0.004 (at node 14)
	maximum = 0.018 (at node 15)
Injected packet length average = 1
Accepted packet length average = 1
Total in-flight flits = 6 (0 measured)
latency change    = 0.0785575
throughput change = 0.0786517
Warmed up ...Time used is 1500 cycles
Class 0:
Packet latency average = 21
	minimum = 7
	maximum = 48
Network latency average = 21
	minimum = 7
	maximum = 48
Slowest packet = 2223
Flit latency average = 21.4429
	minimum = 7
	maximum = 48
Slowest flit = 2223
Fragmentation average = 0
	minimum = 0
	maximum = 0
Injected packet rate average = 0.008375
	minimum = 0.004 (at node 13)
	maximum = 0.012 (at node 7)
Accepted packet rate average = 0.00875
	minimum = 0 (at node 14)
	maximum = 0.018 (at node 3)
Injected flit rate average = 0.008375
	minimum = 0.004 (at node 13)
	maximum = 0.012 (at node 7)
Accepted flit rate average= 0.00875
	minimum = 0 (at node 14)
	maximum = 0.018 (at node 3)
Injected packet length average = 1
Accepted packet length average = 1
Total in-flight flits = 3 (3 measured)
latency change    = 0.023542
throughput change = 0.271429
Class 0:
Packet latency average = 22.3662
	minimum = 7
	maximum = 49
Network latency average = 22.3662
	minimum = 7
	maximum = 49
Slowest packet = 2318
Flit latency average = 22.5203
	minimum = 7
	maximum = 49
Slowest flit = 2318
Fragmentation average = 0
	minimum = 0
	maximum = 0
Injected packet rate average = 0.0090625
	minimum = 0.007 (at node 1)
	maximum = 0.012 (at node 9)
Accepted packet rate average = 0.00925
	minimum = 0.005 (at node 7)
	maximum = 0.016 (at node 3)
Injected flit rate average = 0.0090625
	minimum = 0.007 (at node 1)
	maximum = 0.012 (at node 9)
Accepted flit rate average= 0.00925
	minimum = 0.005 (at node 7)
	maximum = 0.016 (at node 3)
Injected packet length average = 1
Accepted packet length average = 1
Total in-flight flits = 3 (3 measured)
latency change    = 0.0610831
throughput change = 0.0540541
Class 0:
Packet latency average = 22.4112
	minimum = 7
	maximum = 49
Network latency average = 22.4112
	minimum = 7
	maximum = 49
Slowest packet = 2318
Flit latency average = 22.5136
	minimum = 7
	maximum = 49
Slowest flit = 2318
Fragmentation average = 0
	minimum = 0
	maximum = 0
Injected packet rate average = 0.00908333
	minimum = 0.006 (at node 12)
	maximum = 0.012 (at node 7)
Accepted packet rate average = 0.00916667
	minimum = 0.00533333 (at node 14)
	maximum = 0.014 (at node 3)
Injected flit rate average = 0.00908333
	minimum = 0.006 (at node 12)
	maximum = 0.012 (at node 7)
Accepted flit rate average= 0.00916667
	minimum = 0.00533333 (at node 14)
	maximum = 0.014 (at node 3)
Injected packet length average = 1
Accepted packet length average = 1
Total in-flight flits = 4 (4 measured)
latency change    = 0.00200872
throughput change = 0.00909091
Class 0:
Packet latency average = 21.9459
	minimum = 7
	maximum = 49
Network latency average = 21.9459
	minimum = 7
	maximum = 49
Slowest packet = 2318
Flit latency average = 22.0298
	minimum = 7
	maximum = 49
Slowest flit = 2318
Fragmentation average = 0
	minimum = 0
	maximum = 0
Injected packet rate average = 0.00940625
	minimum = 0.0065 (at node 3)
	maximum = 0.012 (at node 7)
Accepted packet rate average = 0.0094375
	minimum = 0.006 (at node 14)
	maximum = 0.0135 (at node 3)
Injected flit rate average = 0.00940625
	minimum = 0.0065 (at node 3)
	maximum = 0.012 (at node 7)
Accepted flit rate average= 0.0094375
	minimum = 0.006 (at node 14)
	maximum = 0.0135 (at node 3)
Injected packet length average = 1
Accepted packet length average = 1
Total in-flight flits = 5 (5 measured)
latency change    = 0.0212007
throughput change = 0.0286976
Class 0:
Packet latency average = 21.3543
	minimum = 7
	maximum = 49
Network latency average = 21.3543
	minimum = 7
	maximum = 49
Slowest packet = 2318
Flit latency average = 21.4289
	minimum = 7
	maximum = 49
Slowest flit = 2318
Fragmentation average = 0
	minimum = 0
	maximum = 0
Injected packet rate average = 0.009575
	minimum = 0.0068 (at node 3)
	maximum = 0.012 (at node 5)
Accepted packet rate average = 0.009675
	minimum = 0.006 (at node 14)
	maximum = 0.0128 (at node 0)
Injected flit rate average = 0.009575
	minimum = 0.0068 (at node 3)
	maximum = 0.012 (at node 5)
Accepted flit rate average= 0.009675
	minimum = 0.006 (at node 14)
	maximum = 0.0128 (at node 0)
Injected packet length average = 1
Accepted packet length average = 1
Total in-flight flits = 2 (2 measured)
latency change    = 0.0277047
throughput change = 0.0245478
Draining all recorded packets ...
Draining remaining packets ...
Time taken is 4013 cycles
Class 0:
Packet latency average = 21.4359
	minimum = 7
	maximum = 42
Network latency average = 21.4359
	minimum = 7
	maximum = 42
Slowest packet = 2630
Flit latency average = 21.4359
	minimum = 7
	maximum = 42
Slowest flit = 2630
Fragmentation average = 0
	minimum = 0
	maximum = 0
Injected packet rate average = 0.010125
	minimum = 0.006 (at node 7)
	maximum = 0.018 (at node 4)
Accepted packet rate average = 0.00975
	minimum = 0.004 (at node 9)
	maximum = 0.018 (at node 7)
Injected flit rate average = 0.010125
	minimum = 0.006 (at node 7)
	maximum = 0.018 (at node 4)
Accepted flit rate average= 0.00975
	minimum = 0.004 (at node 9)
	maximum = 0.018 (at node 7)
Injected packet length average = 1
Accepted packet length average = 1
Total in-flight flits = 3 (0 measured)
latency change    = 1
throughput change = 1
Class 0:
Packet latency average = 22.1824
	minimum = 7
	maximum = 42
Network latency average = 22.1824
	minimum = 7
	maximum = 42
Slowest packet = 2630
Flit latency average = 22.1824
	minimum = 7
	maximum = 42
Slowest flit = 2630
Fragmentation average = 0
	minimum = 0
	maximum = 0
Injected packet rate average = 0.010375
	minimum = 0.005 (at node 7)
	maximum = 0.014 (at node 11)
Accepted packet rate average = 0.0099375
	minimum = 0.003 (at node 14)
	maximum = 0.016 (at node 7)
Injected flit rate average = 0.010375
	minimum = 0.005 (at node 7)
	maximum = 0.014 (at node 11)
Accepted flit rate average= 0.0099375
	minimum = 0.003 (at node 14)
	maximum = 0.016 (at node 7)
Injected packet length average = 1
Accepted packet length average = 1
Total in-flight flits = 7 (0 measured)
latency change    = 0.0336525
throughput change = 0.0188679
Class 0:
Packet latency average = 22.2121
	minimum = 7
	maximum = 49
Network latency average = 22.2121
	minimum = 7
	maximum = 49
Slowest packet = 2717
Flit latency average = 22.2121
	minimum = 7
	maximum = 49
Slowest flit = 2717
Fragmentation average = 0
	minimum = 0
	maximum = 0
Injected packet rate average = 0.0075
	minimum = 0.002 (at node 8)
	maximum = 0.014 (at node 11)
Accepted packet rate average = 0.00825
	minimum = 0.002 (at node 12)
	maximum = 0.016 (at node 15)
Injected flit rate average = 0.0075
	minimum = 0.002 (at node 8)
	maximum = 0.014 (at node 11)
Accepted flit rate average= 0.00825
	minimum = 0.002 (at node 12)
	maximum = 0.016 (at node 15)
Injected packet length average = 1
Accepted packet length average = 1
Total in-flight flits = 1 (0 measured)
latency change    = 0.00133852
throughput change = 0.204545
Warmed up ...Time used is 1500 cycles
Class 0:
Packet latency average = 24.6104
	minimum = 7
	maximum = 47
Network latency average = 24.6104
	minimum = 7
	maximum = 47
Slowest packet = 2818
Flit latency average = 24.4487
	minimum = 7
	maximum = 47
Slowest flit = 2818
Fragmentation average = 0
	minimum = 0
	maximum = 0
Injected packet rate average = 0.01
	minimum = 0 (at node 10)
	maximum = 0.018 (at node 8)
Accepted packet rate average = 0.00975
	minimum = 0.004 (at node 4)
	maximum = 0.016 (at node 0)
Injected flit rate average = 0.01
	minimum = 0 (at node 10)
	maximum = 0.018 (at node 8)
Accepted flit rate average= 0.00975
	minimum = 0.004 (at node 4)
	maximum = 0.016 (at node 0)
Injected packet length average = 1
Accepted packet length average = 1
Total in-flight flits = 3 (3 measured)
latency change    = 0.0974494
throughput change = 0.153846
Class 0:
Packet latency average = 24.0309
	minimum = 7
	maximum = 47
Network latency average = 24.0309
	minimum = 7
	maximum = 47
Slowest packet = 2818
Flit latency average = 23.9571
	minimum = 7
	maximum = 47
Slowest flit = 2818
Fragmentation average = 0
	minimum = 0
	maximum = 0
Injected packet rate average = 0.010375
	minimum = 0.005 (at node 9)
	maximum = 0.017 (at node 8)
Accepted packet rate average = 0.0101875
	minimum = 0.007 (at node 5)
	maximum = 0.014 (at node 0)
Injected flit rate average = 0.010375
	minimum = 0.005 (at node 9)
	maximum = 0.017 (at node 8)
Accepted flit rate average= 0.0101875
	minimum = 0.007 (at node 5)
	maximum = 0.014 (at node 0)
Injected packet length average = 1
Accepted packet length average = 1
Total in-flight flits = 4 (4 measured)
latency change    = 0.0241159
throughput change = 0.0429448
Class 0:
Packet latency average = 23.2348
	minimum = 7
	maximum = 47
Network latency average = 23.2348
	minimum = 7
	maximum = 47
Slowest packet = 2818
Flit latency average = 23.1861
	minimum = 7
	maximum = 47
Slowest flit = 2818
Fragmentation average = 0
	minimum = 0
	maximum = 0
Injected packet rate average = 0.00966667
	minimum = 0.00333333 (at node 9)
	maximum = 0.0146667 (at node 8)
Accepted packet rate average = 0.009625
	minimum = 0.00666667 (at node 6)
	maximum = 0.0133333 (at node 0)
Injected flit rate average = 0.00966667
	minimum = 0.00333333 (at node 9)
	maximum = 0.0146667 (at node 8)
Accepted flit rate average= 0.009625
	minimum = 0.00666667 (at node 6)
	maximum = 0.0133333 (at node 0)
Injected packet length average = 1
Accepted packet length average = 1
Total in-flight flits = 2 (2 measured)
latency change    = 0.0342625
throughput change = 0.0584416
Class 0:
Packet latency average = 23.0362
	minimum = 7
	maximum = 47
Network latency average = 23.0362
	minimum = 7
	maximum = 47
Slowest packet = 2818
Flit latency average = 23
	minimum = 7
	maximum = 47
Slowest flit = 2818
Fragmentation average = 0
	minimum = 0
	maximum = 0
Injected packet rate average = 0.00959375
	minimum = 0.0045 (at node 9)
	maximum = 0.0135 (at node 8)
Accepted packet rate average = 0.00953125
	minimum = 0.0065 (at node 6)
	maximum = 0.013 (at node 0)
Injected flit rate average = 0.00959375
	minimum = 0.0045 (at node 9)
	maximum = 0.0135 (at node 8)
Accepted flit rate average= 0.00953125
	minimum = 0.0065 (at node 6)
	maximum = 0.013 (at node 0)
Injected packet length average = 1
Accepted packet length average = 1
Total in-flight flits = 3 (3 measured)
latency change    = 0.00862115
throughput change = 0.00983607
Class 0:
Packet latency average = 22.5013
	minimum = 7
	maximum = 47
Network latency average = 22.5013
	minimum = 7
	maximum = 47
Slowest packet = 2818
Flit latency average = 22.4733
	minimum = 7
	maximum = 47
Slowest flit = 2818
Fragmentation average = 0
	minimum = 0
	maximum = 0
Injected packet rate average = 0.009375
	minimum = 0.0052 (at node 9)
	maximum = 0.0132 (at node 8)
Accepted packet rate average = 0.00935
	minimum = 0.0068 (at node 15)
	maximum = 0.012 (at node 0)
Injected flit rate average = 0.009375
	minimum = 0.0052 (at node 9)
	maximum = 0.0132 (at node 8)
Accepted flit rate average= 0.00935
	minimum = 0.0068 (at node 15)
	maximum = 0.012 (at node 0)
Injected packet length average = 1
Accepted packet length average = 1
Total in-flight flits = 2 (2 measured)
latency change    = 0.0237694
throughput change = 0.019385
Class 0:
Packet latency average = 22.4913
	minimum = 7
	maximum = 47
Network latency average = 22.4913
	minimum = 7
	maximum = 47
Slowest packet = 2818
Flit latency average = 22.4684
	minimum = 7
	maximum = 47
Slowest flit = 2818
Fragmentation average = 0
	minimum = 0
	maximum = 0
Injected packet rate average = 0.00958333
	minimum = 0.00633333 (at node 2)
	maximum = 0.0123333 (at node 8)
Accepted packet rate average = 0.0095625
	minimum = 0.00733333 (at node 6)
	maximum = 0.012 (at node 0)
Injected flit rate average = 0.00958333
	minimum = 0.00633333 (at node 2)
	maximum = 0.0123333 (at node 8)
Accepted flit rate average= 0.0095625
	minimum = 0.00733333 (at node 6)
	maximum = 0.012 (at node 0)
Injected packet length average = 1
Accepted packet length average = 1
Total in-flight flits = 2 (2 measured)
latency change    = 0.000447912
throughput change = 0.0222222
Draining all recorded packets ...
Draining remaining packets ...
Time taken is 4555 cycles
Class 0:
Packet latency average = 23.2222
	minimum = 7
	maximum = 42
Network latency average = 23.2222
	minimum = 7
	maximum = 42
Slowest packet = 3264
Flit latency average = 23.2222
	minimum = 7
	maximum = 42
Slowest flit = 3264
Fragmentation average = 0
	minimum = 0
	maximum = 0
Injected packet rate average = 0.00975
	minimum = 0.002 (at node 5)
	maximum = 0.016 (at node 7)
Accepted packet rate average = 0.009
	minimum = 0 (at node 7)
	maximum = 0.016 (at node 15)
Injected flit rate average = 0.00975
	minimum = 0.002 (at node 5)
	maximum = 0.016 (at node 7)
Accepted flit rate average= 0.009
	minimum = 0 (at node 7)
	maximum = 0.016 (at node 15)
Injected packet length average = 1
Accepted packet length average = 1
Total in-flight flits = 6 (0 measured)
latency change    = 1
throughput change = 1
Class 0:
Packet latency average = 23.275
	minimum = 7
	maximum = 49
Network latency average = 23.275
	minimum = 7
	maximum = 49
Slowest packet = 3400
Flit latency average = 23.275
	minimum = 7
	maximum = 49
Slowest flit = 3400
Fragmentation average = 0
	minimum = 0
	maximum = 0
Injected packet rate average = 0.010125
	minimum = 0.004 (at node 5)
	maximum = 0.019 (at node 12)
Accepted packet rate average = 0.01
	minimum = 0.005 (at node 1)
	maximum = 0.019 (at node 6)
Injected flit rate average = 0.010125
	minimum = 0.004 (at node 5)
	maximum = 0.019 (at node 12)
Accepted flit rate average= 0.01
	minimum = 0.005 (at node 1)
	maximum = 0.019 (at node 6)
Injected packet length average = 1
Accepted packet length average = 1
Total in-flight flits = 2 (0 measured)
latency change    = 0.00226757
throughput change = 0.1
Class 0:
Packet latency average = 23.1398
	minimum = 7
	maximum = 46
Network latency average = 23.1398
	minimum = 7
	maximum = 46
Slowest packet = 3472
Flit latency average = 23.1398
	minimum = 7
	maximum = 46
Slowest flit = 3472
Fragmentation average = 0
	minimum = 0
	maximum = 0
Injected packet rate average = 0.011625
	minimum = 0.004 (at node 1)
	maximum = 0.02 (at node 0)
Accepted packet rate average = 0.011625
	minimum = 0.004 (at node 13)
	maximum = 0.02 (at node 1)
Injected flit rate average = 0.011625
	minimum = 0.004 (at node 1)
	maximum = 0.02 (at node 0)
Accepted flit rate average= 0.011625
	minimum = 0.004 (at node 13)
	maximum = 0.02 (at node 1)
Injected packet length average = 1
Accepted packet length average = 1
Total in-flight flits = 2 (0 measured)
latency change    = 0.0058434
throughput change = 0.139785
Warmed up ...Time used is 1500 cycles
Class 0:
Packet latency average = 19.8667
	minimum = 7
	maximum = 42
Network latency average = 19.8667
	minimum = 7
	maximum = 42
Slowest packet = 3578
Flit latency average = 19.7922
	minimum = 7
	maximum = 42
Slowest flit = 3578
Fragmentation average = 0
	minimum = 0
	maximum = 0
Injected packet rate average = 0.009625
	minimum = 0.004 (at node 12)
	maximum = 0.022 (at node 14)
Accepted packet rate average = 0.009625
	minimum = 0.004 (at node 12)
	maximum = 0.018 (at node 9)
Injected flit rate average = 0.009625
	minimum = 0.004 (at node 12)
	maximum = 0.022 (at node 14)
Accepted flit rate average= 0.009625
	minimum = 0.004 (at node 12)
	maximum = 0.018 (at node 9)
Injected packet length average = 1
Accepted packet length average = 1
Total in-flight flits = 2 (2 measured)
latency change    = 0.164754
throughput change = 0.207792
Class 0:
Packet latency average = 20.5547
	minimum = 7
	maximum = 42
Network latency average = 20.5547
	minimum = 7
	maximum = 42
Slowest packet = 3578
Flit latency average = 20.5036
	minimum = 7
	maximum = 42
Slowest flit = 3578
Fragmentation average = 0
	minimum = 0
	maximum = 0
Injected packet rate average = 0.0086875
	minimum = 0.004 (at node 12)
	maximum = 0.012 (at node 11)
Accepted packet rate average = 0.0086875
	minimum = 0.005 (at node 2)
	maximum = 0.013 (at node 4)
Injected flit rate average = 0.0086875
	minimum = 0.004 (at node 12)
	maximum = 0.012 (at node 11)
Accepted flit rate average= 0.0086875
	minimum = 0.005 (at node 2)
	maximum = 0.013 (at node 4)
Injected packet length average = 1
Accepted packet length average = 1
Total in-flight flits = 2 (2 measured)
latency change    = 0.0334754
throughput change = 0.107914
Class 0:
Packet latency average = 20.6439
	minimum = 7
	maximum = 47
Network latency average = 20.6439
	minimum = 7
	maximum = 47
Slowest packet = 3692
Flit latency average = 20.6087
	minimum = 7
	maximum = 47
Slowest flit = 3692
Fragmentation average = 0
	minimum = 0
	maximum = 0
Injected packet rate average = 0.00866667
	minimum = 0.004 (at node 2)
	maximum = 0.014 (at node 11)
Accepted packet rate average = 0.008625
	minimum = 0.00533333 (at node 2)
	maximum = 0.0113333 (at node 0)
Injected flit rate average = 0.00866667
	minimum = 0.004 (at node 2)
	maximum = 0.014 (at node 11)
Accepted flit rate average= 0.008625
	minimum = 0.00533333 (at node 2)
	maximum = 0.0113333 (at node 0)
Injected packet length average = 1
Accepted packet length average = 1
Total in-flight flits = 3 (3 measured)
latency change    = 0.00431885
throughput change = 0.00724638
Class 0:
Packet latency average = 21.2473
	minimum = 7
	maximum = 48
Network latency average = 21.2473
	minimum = 7
	maximum = 48
Slowest packet = 3770
Flit latency average = 21.2171
	minimum = 7
	maximum = 48
Slowest flit = 3770
Fragmentation average = 0
	minimum = 0
	maximum = 0
Injected packet rate average = 0.0088125
	minimum = 0.0045 (at node 2)
	maximum = 0.0145 (at node 11)
Accepted packet rate average = 0.00878125
	minimum = 0.006 (at node 2)
	maximum = 0.011 (at node 15)
Injected flit rate average = 0.0088125
	minimum = 0.0045 (at node 2)
	maximum = 0.0145 (at node 11)
Accepted flit rate average= 0.00878125
	minimum = 0.006 (at node 2)
	maximum = 0.011 (at node 15)
Injected packet length average = 1
Accepted packet length average = 1
Total in-flight flits = 3 (3 measured)
latency change    = 0.0283993
throughput change = 0.0177936
Class 0:
Packet latency average = 21.3148
	minimum = 7
	maximum = 48
Network latency average = 21.3148
	minimum = 7
	maximum = 48
Slowest packet = 3770
Flit latency average = 21.2909
	minimum = 7
	maximum = 48
Slowest flit = 3770
Fragmentation average = 0
	minimum = 0
	maximum = 0
Injected packet rate average = 0.00905
	minimum = 0.006 (at node 2)
	maximum = 0.0144 (at node 11)
Accepted packet rate average = 0.009025
	minimum = 0.0056 (at node 2)
	maximum = 0.012 (at node 5)
Injected flit rate average = 0.00905
	minimum = 0.006 (at node 2)
	maximum = 0.0144 (at node 11)
Accepted flit rate average= 0.009025
	minimum = 0.0056 (at node 2)
	maximum = 0.012 (at node 5)
Injected packet length average = 1
Accepted packet length average = 1
Total in-flight flits = 3 (3 measured)
latency change    = 0.00316454
throughput change = 0.0270083
Draining all recorded packets ...
Draining remaining packets ...
Time taken is 4040 cycles
Class 0:
Packet latency average = 23.0286
	minimum = 7
	maximum = 42
Network latency average = 23.0286
	minimum = 7
	maximum = 42
Slowest packet = 3874
Flit latency average = 23.0286
	minimum = 7
	maximum = 42
Slowest flit = 3874
Fragmentation average = 0
	minimum = 0
	maximum = 0
Injected packet rate average = 0.009
	minimum = 0 (at node 10)
	maximum = 0.02 (at node 14)
Accepted packet rate average = 0.00875
	minimum = 0.002 (at node 5)
	maximum = 0.02 (at node 0)
Injected flit rate average = 0.009
	minimum = 0 (at node 10)
	maximum = 0.02 (at node 14)
Accepted flit rate average= 0.00875
	minimum = 0.002 (at node 5)
	maximum = 0.02 (at node 0)
Injected packet length average = 1
Accepted packet length average = 1
Total in-flight flits = 2 (0 measured)
latency change    = 1
throughput change = 1
Class 0:
Packet latency average = 22.0437
	minimum = 7
	maximum = 47
Network latency average = 22.0437
	minimum = 7
	maximum = 47
Slowest packet = 4021
Flit latency average = 22.0437
	minimum = 7
	maximum = 47
Slowest flit = 4021
Fragmentation average = 0
	minimum = 0
	maximum = 0
Injected packet rate average = 0.01025
	minimum = 0.004 (at node 10)
	maximum = 0.018 (at node 14)
Accepted packet rate average = 0.01
	minimum = 0.004 (at node 12)
	maximum = 0.016 (at node 1)
Injected flit rate average = 0.01025
	minimum = 0.004 (at node 10)
	maximum = 0.018 (at node 14)
Accepted flit rate average= 0.01
	minimum = 0.004 (at node 12)
	maximum = 0.016 (at node 1)
Injected packet length average = 1
Accepted packet length average = 1
Total in-flight flits = 4 (0 measured)
latency change    = 0.0446758
throughput change = 0.125
Class 0:
Packet latency average = 24.0112
	minimum = 7
	maximum = 47
Network latency average = 24.0112
	minimum = 7
	maximum = 47
Slowest packet = 4039
Flit latency average = 24.0112
	minimum = 7
	maximum = 47
Slowest flit = 4039
Fragmentation average = 0
	minimum = 0
	maximum = 0
Injected packet rate average = 0.01125
	minimum = 0.006 (at node 4)
	maximum = 0.02 (at node 0)
Accepted packet rate average = 0.011125
	minimum = 0.004 (at node 4)
	maximum = 0.02 (at node 3)
Injected flit rate average = 0.01125
	minimum = 0.006 (at node 4)
	maximum = 0.02 (at node 0)
Accepted flit rate average= 0.011125
	minimum = 0.004 (at node 4)
	maximum = 0.02 (at node 3)
Injected packet length average = 1
Accepted packet length average = 1
Total in-flight flits = 5 (0 measured)
latency change    = 0.0819402
throughput change = 0.101124
Warmed up ...Time used is 1500 cycles
Class 0:
Packet latency average = 21.8387
	minimum = 7
	maximum = 42
Network latency average = 21.8387
	minimum = 7
	maximum = 42
Slowest packet = 4144
Flit latency average = 22.5075
	minimum = 7
	maximum = 47
Slowest flit = 4124
Fragmentation average = 0
	minimum = 0
	maximum = 0
Injected packet rate average = 0.008375
	minimum = 0.004 (at node 6)
	maximum = 0.014 (at node 10)
Accepted packet rate average = 0.008375
	minimum = 0 (at node 10)
	maximum = 0.016 (at node 3)
Injected flit rate average = 0.008375
	minimum = 0.004 (at node 6)
	maximum = 0.014 (at node 10)
Accepted flit rate average= 0.008375
	minimum = 0 (at node 10)
	maximum = 0.016 (at node 3)
Injected packet length average = 1
Accepted packet length average = 1
Total in-flight flits = 5 (5 measured)
latency change    = 0.0994805
throughput change = 0.328358
Class 0:
Packet latency average = 21.3056
	minimum = 7
	maximum = 42
Network latency average = 21.3056
	minimum = 7
	maximum = 42
Slowest packet = 4144
Flit latency average = 21.6242
	minimum = 7
	maximum = 47
Slowest flit = 4124
Fragmentation average = 0
	minimum = 0
	maximum = 0
Injected packet rate average = 0.00925
	minimum = 0.004 (at node 7)
	maximum = 0.015 (at node 8)
Accepted packet rate average = 0.0093125
	minimum = 0.005 (at node 10)
	maximum = 0.013 (at node 3)
Injected flit rate average = 0.00925
	minimum = 0.004 (at node 7)
	maximum = 0.015 (at node 8)
Accepted flit rate average= 0.0093125
	minimum = 0.005 (at node 10)
	maximum = 0.013 (at node 3)
Injected packet length average = 1
Accepted packet length average = 1
Total in-flight flits = 4 (4 measured)
latency change    = 0.0250242
throughput change = 0.100671
Class 0:
Packet latency average = 21.2699
	minimum = 7
	maximum = 47
Network latency average = 21.2699
	minimum = 7
	maximum = 47
Slowest packet = 4346
Flit latency average = 21.4762
	minimum = 7
	maximum = 47
Slowest flit = 4124
Fragmentation average = 0
	minimum = 0
	maximum = 0
Injected packet rate average = 0.00966667
	minimum = 0.00533333 (at node 7)
	maximum = 0.016 (at node 8)
Accepted packet rate average = 0.009625
	minimum = 0.00533333 (at node 11)
	maximum = 0.014 (at node 3)
Injected flit rate average = 0.00966667
	minimum = 0.00533333 (at node 7)
	maximum = 0.016 (at node 8)
Accepted flit rate average= 0.009625
	minimum = 0.00533333 (at node 11)
	maximum = 0.014 (at node 3)
Injected packet length average = 1
Accepted packet length average = 1
Total in-flight flits = 6 (6 measured)
latency change    = 0.0016758
throughput change = 0.0324675
Class 0:
Packet latency average = 21.4725
	minimum = 7
	maximum = 47
Network latency average = 21.4725
	minimum = 7
	maximum = 47
Slowest packet = 4346
Flit latency average = 21.621
	minimum = 7
	maximum = 47
Slowest flit = 4124
Fragmentation average = 0
	minimum = 0
	maximum = 0
Injected packet rate average = 0.0096875
	minimum = 0.006 (at node 7)
	maximum = 0.0135 (at node 8)
Accepted packet rate average = 0.0098125
	minimum = 0.006 (at node 11)
	maximum = 0.0145 (at node 7)
Injected flit rate average = 0.0096875
	minimum = 0.006 (at node 7)
	maximum = 0.0135 (at node 8)
Accepted flit rate average= 0.0098125
	minimum = 0.006 (at node 11)
	maximum = 0.0145 (at node 7)
Injected packet length average = 1
Accepted packet length average = 1
Total in-flight flits = 1 (1 measured)
latency change    = 0.00943442
throughput change = 0.0191083
Class 0:
Packet latency average = 21.5844
	minimum = 7
	maximum = 47
Network latency average = 21.5844
	minimum = 7
	maximum = 47
Slowest packet = 4346
Flit latency average = 21.699
	minimum = 7
	maximum = 47
Slowest flit = 4124
Fragmentation average = 0
	minimum = 0
	maximum = 0
Injected packet rate average = 0.010075
	minimum = 0.0064 (at node 7)
	maximum = 0.016 (at node 8)
Accepted packet rate average = 0.01005
	minimum = 0.0068 (at node 11)
	maximum = 0.0144 (at node 9)
Injected flit rate average = 0.010075
	minimum = 0.0064 (at node 7)
	maximum = 0.016 (at node 8)
Accepted flit rate average= 0.01005
	minimum = 0.0068 (at node 11)
	maximum = 0.0144 (at node 9)
Injected packet length average = 1
Accepted packet length average = 1
Total in-flight flits = 6 (6 measured)
latency change    = 0.00518389
throughput change = 0.0236318
Draining all recorded packets ...
Draining remaining packets ...
Time taken is 4033 cycles
Class 0:
Packet latency average = 21.3562
	minimum = 7
	maximum = 47
Network latency average = 21.3562
	minimum = 7
	maximum = 47
Slowest packet = 4549
Flit latency average = 21.3562
	minimum = 7
	maximum = 47
Slowest flit = 4549
Fragmentation average = 0
	minimum = 0
	maximum = 0
Injected packet rate average = 0.009625
	minimum = 0.004 (at node 2)
	maximum = 0.02 (at node 5)
Accepted packet rate average = 0.009125
	minimum = 0.006 (at node 1)
	maximum = 0.026 (at node 5)
Injected flit rate average = 0.009625
	minimum = 0.004 (at node 2)
	maximum = 0.02 (at node 5)
Accepted flit rate average= 0.009125
	minimum = 0.006 (at node 1)
	maximum = 0.026 (at node 5)
Injected packet length average = 1
Accepted packet length average = 1
Total in-flight flits = 4 (0 measured)
latency change    = 1
throughput change = 1
Class 0:
Packet latency average = 21.9641
	minimum = 7
	maximum = 47
Network latency average = 21.9641
	minimum = 7
	maximum = 47
Slowest packet = 4549
Flit latency average = 21.9641
	minimum = 7
	maximum = 47
Slowest flit = 4549
Fragmentation average = 0
	minimum = 0
	maximum = 0
Injected packet rate average = 0.0108125
	minimum = 0.006 (at node 14)
	maximum = 0.02 (at node 5)
Accepted packet rate average = 0.0104375
	minimum = 0.006 (at node 8)
	maximum = 0.018 (at node 5)
Injected flit rate average = 0.0108125
	minimum = 0.006 (at node 14)
	maximum = 0.02 (at node 5)
Accepted flit rate average= 0.0104375
	minimum = 0.006 (at node 8)
	maximum = 0.018 (at node 5)
Injected packet length average = 1
Accepted packet length average = 1
Total in-flight flits = 6 (0 measured)
latency change    = 0.0276774
throughput change = 0.125749
Class 0:
Packet latency average = 21.1014
	minimum = 7
	maximum = 42
Network latency average = 21.1014
	minimum = 7
	maximum = 42
Slowest packet = 4721
Flit latency average = 21.1014
	minimum = 7
	maximum = 42
Slowest flit = 4721
Fragmentation average = 0
	minimum = 0
	maximum = 0
Injected packet rate average = 0.008125
	minimum = 0.002 (at node 0)
	maximum = 0.014 (at node 12)
Accepted packet rate average = 0.008625
	minimum = 0.004 (at node 0)
	maximum = 0.016 (at node 13)
Injected flit rate average = 0.008125
	minimum = 0.002 (at node 0)
	maximum = 0.014 (at node 12)
Accepted flit rate average= 0.008625
	minimum = 0.004 (at node 0)
	maximum = 0.016 (at node 13)
Injected packet length average = 1
Accepted packet length average = 1
Total in-flight flits = 2 (0 measured)
latency change    = 0.0408798
throughput change = 0.210145
Warmed up ...Time used is 1500 cycles
Class 0:
Packet latency average = 20.3286
	minimum = 7
	maximum = 50
Network latency average = 20.3286
	minimum = 7
	maximum = 50
Slowest packet = 4809
Flit latency average = 20.2361
	minimum = 7
	maximum = 50
Slowest flit = 4809
Fragmentation average = 0
	minimum = 0
	maximum = 0
Injected packet rate average = 0.009125
	minimum = 0.002 (at node 3)
	maximum = 0.018 (at node 15)
Accepted packet rate average = 0.009
	minimum = 0.002 (at node 0)
	maximum = 0.018 (at node 8)
Injected flit rate average = 0.009125
	minimum = 0.002 (at node 3)
	maximum = 0.018 (at node 15)
Accepted flit rate average= 0.009
	minimum = 0.002 (at node 0)
	maximum = 0.018 (at node 8)
Injected packet length average = 1
Accepted packet length average = 1
Total in-flight flits = 3 (3 measured)
latency change    = 0.0380193
throughput change = 0.0416667
Class 0:
Packet latency average = 21.7673
	minimum = 7
	maximum = 50
Network latency average = 21.7673
	minimum = 7
	maximum = 50
Slowest packet = 4809
Flit latency average = 21.7081
	minimum = 7
	maximum = 50
Slowest flit = 4809
Fragmentation average = 0
	minimum = 0
	maximum = 0
Injected packet rate average = 0.010125
	minimum = 0.004 (at node 9)
	maximum = 0.019 (at node 0)
Accepted packet rate average = 0.0100625
	minimum = 0.006 (at node 0)
	maximum = 0.017 (at node 5)
Injected flit rate average = 0.010125
	minimum = 0.004 (at node 9)
	maximum = 0.019 (at node 0)
Accepted flit rate average= 0.0100625
	minimum = 0.006 (at node 0)
	maximum = 0.017 (at node 5)
Injected packet length average = 1
Accepted packet length average = 1
Total in-flight flits = 3 (3 measured)
latency change    = 0.0660957
throughput change = 0.10559
Class 0:
Packet latency average = 21.4496
	minimum = 7
	maximum = 50
Network latency average = 21.4496
	minimum = 7
	maximum = 50
Slowest packet = 4809
Flit latency average = 21.4125
	minimum = 7
	maximum = 50
Slowest flit = 4809
Fragmentation average = 0
	minimum = 0
	maximum = 0
Injected packet rate average = 0.00995833
	minimum = 0.006 (at node 3)
	maximum = 0.014 (at node 10)
Accepted packet rate average = 0.01
	minimum = 0.00533333 (at node 0)
	maximum = 0.0146667 (at node 8)
Injected flit rate average = 0.00995833
	minimum = 0.006 (at node 3)
	maximum = 0.014 (at node 10)
Accepted flit rate average= 0.01
	minimum = 0.00533333 (at node 0)
	maximum = 0.0146667 (at node 8)
Injected packet length average = 1
Accepted packet length average = 1
Total in-flight flits = 1 (1 measured)
latency change    = 0.0148122
throughput change = 0.00625
Class 0:
Packet latency average = 21.6429
	minimum = 7
	maximum = 50
Network latency average = 21.6429
	minimum = 7
	maximum = 50
Slowest packet = 4809
Flit latency average = 21.6142
	minimum = 7
	maximum = 50
Slowest flit = 4809
Fragmentation average = 0
	minimum = 0
	maximum = 0
Injected packet rate average = 0.0102188
	minimum = 0.0075 (at node 6)
	maximum = 0.015 (at node 15)
Accepted packet rate average = 0.010125
	minimum = 0.006 (at node 12)
	maximum = 0.014 (at node 8)
Injected flit rate average = 0.0102188
	minimum = 0.0075 (at node 6)
	maximum = 0.015 (at node 15)
Accepted flit rate average= 0.010125
	minimum = 0.006 (at node 12)
	maximum = 0.014 (at node 8)
Injected packet length average = 1
Accepted packet length average = 1
Total in-flight flits = 5 (5 measured)
latency change    = 0.0089303
throughput change = 0.0123457
Class 0:
Packet latency average = 21.645
	minimum = 7
	maximum = 50
Network latency average = 21.645
	minimum = 7
	maximum = 50
Slowest packet = 4809
Flit latency average = 21.6219
	minimum = 7
	maximum = 50
Slowest flit = 4809
Fragmentation average = 0
	minimum = 0
	maximum = 0
Injected packet rate average = 0.010075
	minimum = 0.0076 (at node 7)
	maximum = 0.0136 (at node 15)
Accepted packet rate average = 0.01005
	minimum = 0.0072 (at node 2)
	maximum = 0.0128 (at node 11)
Injected flit rate average = 0.010075
	minimum = 0.0076 (at node 7)
	maximum = 0.0136 (at node 15)
Accepted flit rate average= 0.01005
	minimum = 0.0072 (at node 2)
	maximum = 0.0128 (at node 11)
Injected packet length average = 1
Accepted packet length average = 1
Total in-flight flits = 3 (3 measured)
latency change    = 9.90001e-05
throughput change = 0.00746269
Draining all recorded packets ...
Draining remaining packets ...
Time taken is 4051 cycles
Class 0:
Packet latency average = 22
	minimum = 7
	maximum = 47
Network latency average = 22
	minimum = 7
	maximum = 47
Slowest packet = 5179
Flit latency average = 22
	minimum = 7
	maximum = 47
Slowest flit = 5179
Fragmentation average = 0
	minimum = 0
	maximum = 0
Injected packet rate average = 0.00875
	minimum = 0.004 (at node 6)
	maximum = 0.016 (at node 3)
Accepted packet rate average = 0.008625
	minimum = 0.002 (at node 14)
	maximum = 0.012 (at node 9)
Injected flit rate average = 0.00875
	minimum = 0.004 (at node 6)
	maximum = 0.016 (at node 3)
Accepted flit rate average= 0.008625
	minimum = 0.002 (at node 14)
	maximum = 0.012 (at node 9)
Injected packet length average = 1
Accepted packet length average = 1
Total in-flight flits = 1 (0 measured)
latency change    = 1
throughput change = 1
Class 0:
Packet latency average = 21.8312
	minimum = 7
	maximum = 47
Network latency average = 21.8312
	minimum = 7
	maximum = 47
Slowest packet = 5179
Flit latency average = 21.8312
	minimum = 7
	maximum = 47
Slowest flit = 5179
Fragmentation average = 0
	minimum = 0
	maximum = 0
Injected packet rate average = 0.009625
	minimum = 0.005 (at node 4)
	maximum = 0.017 (at node 12)
Accepted packet rate average = 0.009625
	minimum = 0.006 (at node 13)
	maximum = 0.015 (at node 11)
Injected flit rate average = 0.009625
	minimum = 0.005 (at node 4)
	maximum = 0.017 (at node 12)
Accepted flit rate average= 0.009625
	minimum = 0.006 (at node 13)
	maximum = 0.015 (at node 11)
Injected packet length average = 1
Accepted packet length average = 1
Total in-flight flits = 0 (0 measured)
latency change    = 0.00773349
throughput change = 0.103896
Class 0:
Packet latency average = 22.2162
	minimum = 7
	maximum = 52
Network latency average = 22.2162
	minimum = 7
	maximum = 52
Slowest packet = 5342
Flit latency average = 22.2162
	minimum = 7
	maximum = 52
Slowest flit = 5342
Fragmentation average = 0
	minimum = 0
	maximum = 0
Injected packet rate average = 0.009375
	minimum = 0.004 (at node 5)
	maximum = 0.018 (at node 8)
Accepted packet rate average = 0.00925
	minimum = 0.002 (at node 10)
	maximum = 0.018 (at node 1)
Injected flit rate average = 0.009375
	minimum = 0.004 (at node 5)
	maximum = 0.018 (at node 8)
Accepted flit rate average= 0.00925
	minimum = 0.002 (at node 10)
	maximum = 0.018 (at node 1)
Injected packet length average = 1
Accepted packet length average = 1
Total in-flight flits = 1 (0 measured)
latency change    = 0.0173318
throughput change = 0.0405405
Warmed up ...Time used is 1500 cycles
Class 0:
Packet latency average = 22.3125
	minimum = 7
	maximum = 42
Network latency average = 22.3125
	minimum = 7
	maximum = 42
Slowest packet = 5428
Flit latency average = 22.4615
	minimum = 7
	maximum = 42
Slowest flit = 5428
Fragmentation average = 0
	minimum = 0
	maximum = 0
Injected packet rate average = 0.00825
	minimum = 0.004 (at node 11)
	maximum = 0.014 (at node 9)
Accepted packet rate average = 0.008125
	minimum = 0.002 (at node 3)
	maximum = 0.018 (at node 4)
Injected flit rate average = 0.00825
	minimum = 0.004 (at node 11)
	maximum = 0.014 (at node 9)
Accepted flit rate average= 0.008125
	minimum = 0.002 (at node 3)
	maximum = 0.018 (at node 4)
Injected packet length average = 1
Accepted packet length average = 1
Total in-flight flits = 2 (2 measured)
latency change    = 0.00431524
throughput change = 0.138462
Class 0:
Packet latency average = 22
	minimum = 7
	maximum = 45
Network latency average = 22
	minimum = 7
	maximum = 45
Slowest packet = 5511
Flit latency average = 22.0719
	minimum = 7
	maximum = 45
Slowest flit = 5511
Fragmentation average = 0
	minimum = 0
	maximum = 0
Injected packet rate average = 0.0086875
	minimum = 0.004 (at node 11)
	maximum = 0.015 (at node 12)
Accepted packet rate average = 0.0086875
	minimum = 0.002 (at node 2)
	maximum = 0.014 (at node 11)
Injected flit rate average = 0.0086875
	minimum = 0.004 (at node 11)
	maximum = 0.015 (at node 12)
Accepted flit rate average= 0.0086875
	minimum = 0.002 (at node 2)
	maximum = 0.014 (at node 11)
Injected packet length average = 1
Accepted packet length average = 1
Total in-flight flits = 1 (1 measured)
latency change    = 0.0142045
throughput change = 0.0647482
Class 0:
Packet latency average = 21.4211
	minimum = 7
	maximum = 51
Network latency average = 21.4211
	minimum = 7
	maximum = 51
Slowest packet = 5562
Flit latency average = 21.4714
	minimum = 7
	maximum = 51
Slowest flit = 5562
Fragmentation average = 0
	minimum = 0
	maximum = 0
Injected packet rate average = 0.00883333
	minimum = 0.004 (at node 0)
	maximum = 0.0126667 (at node 12)
Accepted packet rate average = 0.00875
	minimum = 0.00266667 (at node 2)
	maximum = 0.0133333 (at node 11)
Injected flit rate average = 0.00883333
	minimum = 0.004 (at node 0)
	maximum = 0.0126667 (at node 12)
Accepted flit rate average= 0.00875
	minimum = 0.00266667 (at node 2)
	maximum = 0.0133333 (at node 11)
Injected packet length average = 1
Accepted packet length average = 1
Total in-flight flits = 3 (3 measured)
latency change    = 0.027027
throughput change = 0.00714286
Class 0:
Packet latency average = 21.2872
	minimum = 7
	maximum = 51
Network latency average = 21.2872
	minimum = 7
	maximum = 51
Slowest packet = 5562
Flit latency average = 21.3241
	minimum = 7
	maximum = 51
Slowest flit = 5562
Fragmentation average = 0
	minimum = 0
	maximum = 0
Injected packet rate average = 0.00925
	minimum = 0.0055 (at node 11)
	maximum = 0.014 (at node 6)
Accepted packet rate average = 0.0090625
	minimum = 0.0035 (at node 2)
	maximum = 0.014 (at node 9)
Injected flit rate average = 0.00925
	minimum = 0.0055 (at node 11)
	maximum = 0.014 (at node 6)
Accepted flit rate average= 0.0090625
	minimum = 0.0035 (at node 2)
	maximum = 0.014 (at node 9)
Injected packet length average = 1
Accepted packet length average = 1
Total in-flight flits = 7 (7 measured)
latency change    = 0.00628807
throughput change = 0.0344828
Class 0:
Packet latency average = 21.6704
	minimum = 7
	maximum = 51
Network latency average = 21.6704
	minimum = 7
	maximum = 51
Slowest packet = 5562
Flit latency average = 21.6989
	minimum = 7
	maximum = 51
Slowest flit = 5562
Fragmentation average = 0
	minimum = 0
	maximum = 0
Injected packet rate average = 0.009125
	minimum = 0.0056 (at node 11)
	maximum = 0.0124 (at node 13)
Accepted packet rate average = 0.00905
	minimum = 0.004 (at node 13)
	maximum = 0.0128 (at node 8)
Injected flit rate average = 0.009125
	minimum = 0.0056 (at node 11)
	maximum = 0.0124 (at node 13)
Accepted flit rate average= 0.00905
	minimum = 0.004 (at node 13)
	maximum = 0.0128 (at node 8)
Injected packet length average = 1
Accepted packet length average = 1
Total in-flight flits = 4 (4 measured)
latency change    = 0.0176814
throughput change = 0.00138122
Draining all recorded packets ...
Draining remaining packets ...
Time taken is 4063 cycles
Class 0:
Packet latency average = 22.2892
	minimum = 7
	maximum = 47
Network latency average = 22.2892
	minimum = 7
	maximum = 47
Slowest packet = 5810
Flit latency average = 22.2892
	minimum = 7
	maximum = 47
Slowest flit = 5810
Fragmentation average = 0
	minimum = 0
	maximum = 0
Injected packet rate average = 0.010875
	minimum = 0.002 (at node 7)
	maximum = 0.02 (at node 1)
Accepted packet rate average = 0.010375
	minimum = 0.006 (at node 4)
	maximum = 0.018 (at node 2)
Injected flit rate average = 0.010875
	minimum = 0.002 (at node 7)
	maximum = 0.02 (at node 1)
Accepted flit rate average= 0.010375
	minimum = 0.006 (at node 4)
	maximum = 0.018 (at node 2)
Injected packet length average = 1
Accepted packet length average = 1
Total in-flight flits = 4 (0 measured)
latency change    = 1
throughput change = 1
Class 0:
Packet latency average = 23.529
	minimum = 7
	maximum = 47
Network latency average = 23.529
	minimum = 7
	maximum = 47
Slowest packet = 5810
Flit latency average = 23.529
	minimum = 7
	maximum = 47
Slowest flit = 5810
Fragmentation average = 0
	minimum = 0
	maximum = 0
Injected packet rate average = 0.009875
	minimum = 0.004 (at node 9)
	maximum = 0.014 (at node 1)
Accepted packet rate average = 0.0096875
	minimum = 0.005 (at node 5)
	maximum = 0.015 (at node 8)
Injected flit rate average = 0.009875
	minimum = 0.004 (at node 9)
	maximum = 0.014 (at node 1)
Accepted flit rate average= 0.0096875
	minimum = 0.005 (at node 5)
	maximum = 0.015 (at node 8)
Injected packet length average = 1
Accepted packet length average = 1
Total in-flight flits = 3 (0 measured)
latency change    = 0.0526956
throughput change = 0.0709677
Class 0:
Packet latency average = 22.3494
	minimum = 7
	maximum = 47
Network latency average = 22.3494
	minimum = 7
	maximum = 47
Slowest packet = 5954
Flit latency average = 22.3494
	minimum = 7
	maximum = 47
Slowest flit = 5954
Fragmentation average = 0
	minimum = 0
	maximum = 0
Injected packet rate average = 0.0105
	minimum = 0.002 (at node 7)
	maximum = 0.016 (at node 0)
Accepted packet rate average = 0.010375
	minimum = 0.002 (at node 14)
	maximum = 0.016 (at node 12)
Injected flit rate average = 0.0105
	minimum = 0.002 (at node 7)
	maximum = 0.016 (at node 0)
Accepted flit rate average= 0.010375
	minimum = 0.002 (at node 14)
	maximum = 0.016 (at node 12)
Injected packet length average = 1
Accepted packet length average = 1
Total in-flight flits = 4 (0 measured)
latency change    = 0.0527815
throughput change = 0.0662651
Warmed up ...Time used is 1500 cycles
Class 0:
Packet latency average = 21.4239
	minimum = 7
	maximum = 45
Network latency average = 21.4239
	minimum = 7
	maximum = 45
Slowest packet = 6066
Flit latency average = 21.5521
	minimum = 7
	maximum = 47
Slowest flit = 6016
Fragmentation average = 0
	minimum = 0
	maximum = 0
Injected packet rate average = 0.012
	minimum = 0.004 (at node 0)
	maximum = 0.02 (at node 11)
Accepted packet rate average = 0.012
	minimum = 0.002 (at node 12)
	maximum = 0.022 (at node 8)
Injected flit rate average = 0.012
	minimum = 0.004 (at node 0)
	maximum = 0.02 (at node 11)
Accepted flit rate average= 0.012
	minimum = 0.002 (at node 12)
	maximum = 0.022 (at node 8)
Injected packet length average = 1
Accepted packet length average = 1
Total in-flight flits = 4 (4 measured)
latency change    = 0.0431987
throughput change = 0.135417
Class 0:
Packet latency average = 21.6374
	minimum = 7
	maximum = 45
Network latency average = 21.6374
	minimum = 7
	maximum = 45
Slowest packet = 6066
Flit latency average = 21.7029
	minimum = 7
	maximum = 47
Slowest flit = 6016
Fragmentation average = 0
	minimum = 0
	maximum = 0
Injected packet rate average = 0.0109375
	minimum = 0.005 (at node 1)
	maximum = 0.017 (at node 6)
Accepted packet rate average = 0.0109375
	minimum = 0.007 (at node 10)
	maximum = 0.018 (at node 8)
Injected flit rate average = 0.0109375
	minimum = 0.005 (at node 1)
	maximum = 0.017 (at node 6)
Accepted flit rate average= 0.0109375
	minimum = 0.007 (at node 10)
	maximum = 0.018 (at node 8)
Injected packet length average = 1
Accepted packet length average = 1
Total in-flight flits = 4 (4 measured)
latency change    = 0.0098678
throughput change = 0.0971429
Class 0:
Packet latency average = 21.2851
	minimum = 7
	maximum = 47
Network latency average = 21.2851
	minimum = 7
	maximum = 47
Slowest packet = 6248
Flit latency average = 21.3374
	minimum = 7
	maximum = 47
Slowest flit = 6016
Fragmentation average = 0
	minimum = 0
	maximum = 0
Injected packet rate average = 0.0101667
	minimum = 0.006 (at node 13)
	maximum = 0.016 (at node 6)
Accepted packet rate average = 0.01025
	minimum = 0.00666667 (at node 3)
	maximum = 0.0146667 (at node 15)
Injected flit rate average = 0.0101667
	minimum = 0.006 (at node 13)
	maximum = 0.016 (at node 6)
Accepted flit rate average= 0.01025
	minimum = 0.00666667 (at node 3)
	maximum = 0.0146667 (at node 15)
Injected packet length average = 1
Accepted packet length average = 1
Total in-flight flits = 2 (2 measured)
latency change    = 0.0165516
throughput change = 0.0670732
Class 0:
Packet latency average = 21.3333
	minimum = 7
	maximum = 47
Network latency average = 21.3333
	minimum = 7
	maximum = 47
Slowest packet = 6248
Flit latency average = 21.3723
	minimum = 7
	maximum = 47
Slowest flit = 6016
Fragmentation average = 0
	minimum = 0
	maximum = 0
Injected packet rate average = 0.0100938
	minimum = 0.0075 (at node 13)
	maximum = 0.014 (at node 11)
Accepted packet rate average = 0.0101563
	minimum = 0.006 (at node 3)
	maximum = 0.0155 (at node 2)
Injected flit rate average = 0.0100938
	minimum = 0.0075 (at node 13)
	maximum = 0.014 (at node 11)
Accepted flit rate average= 0.0101563
	minimum = 0.006 (at node 3)
	maximum = 0.0155 (at node 2)
Injected packet length average = 1
Accepted packet length average = 1
Total in-flight flits = 2 (2 measured)
latency change    = 0.00225981
throughput change = 0.00923077
Class 0:
Packet latency average = 21.8415
	minimum = 7
	maximum = 47
Network latency average = 21.8415
	minimum = 7
	maximum = 47
Slowest packet = 6248
Flit latency average = 21.8671
	minimum = 7
	maximum = 47
Slowest flit = 6016
Fragmentation average = 0
	minimum = 0
	maximum = 0
Injected packet rate average = 0.010375
	minimum = 0.008 (at node 13)
	maximum = 0.0136 (at node 2)
Accepted packet rate average = 0.01035
	minimum = 0.0072 (at node 12)
	maximum = 0.0156 (at node 2)
Injected flit rate average = 0.010375
	minimum = 0.008 (at node 13)
	maximum = 0.0136 (at node 2)
Accepted flit rate average= 0.01035
	minimum = 0.0072 (at node 12)
	maximum = 0.0156 (at node 2)
Injected packet length average = 1
Accepted packet length average = 1
Total in-flight flits = 5 (5 measured)
latency change    = 0.0232645
throughput change = 0.0187198
Class 0:
Packet latency average = 21.4663
	minimum = 7
	maximum = 47
Network latency average = 21.4663
	minimum = 7
	maximum = 47
Slowest packet = 6248
Flit latency average = 21.4909
	minimum = 7
	maximum = 47
Slowest flit = 6016
Fragmentation average = 0
	minimum = 0
	maximum = 0
Injected packet rate average = 0.0103125
	minimum = 0.008 (at node 3)
	maximum = 0.013 (at node 7)
Accepted packet rate average = 0.0102708
	minimum = 0.00733333 (at node 10)
	maximum = 0.0146667 (at node 2)
Injected flit rate average = 0.0103125
	minimum = 0.008 (at node 3)
	maximum = 0.013 (at node 7)
Accepted flit rate average= 0.0102708
	minimum = 0.00733333 (at node 10)
	maximum = 0.0146667 (at node 2)
Injected packet length average = 1
Accepted packet length average = 1
Total in-flight flits = 6 (6 measured)
latency change    = 0.0174789
throughput change = 0.00770791
Draining all recorded packets ...
Draining remaining packets ...
Time taken is 4543 cycles
Class 0:
Packet latency average = 22.4651
	minimum = 7
	maximum = 43
Network latency average = 22.4651
	minimum = 7
	maximum = 43
Slowest packet = 6581
Flit latency average = 22.4651
	minimum = 7
	maximum = 43
Slowest flit = 6581
Fragmentation average = 0
	minimum = 0
	maximum = 0
Injected packet rate average = 0.011125
	minimum = 0.002 (at node 6)
	maximum = 0.018 (at node 2)
Accepted packet rate average = 0.01075
	minimum = 0.004 (at node 9)
	maximum = 0.016 (at node 10)
Injected flit rate average = 0.011125
	minimum = 0.002 (at node 6)
	maximum = 0.018 (at node 2)
Accepted flit rate average= 0.01075
	minimum = 0.004 (at node 9)
	maximum = 0.016 (at node 10)
Injected packet length average = 1
Accepted packet length average = 1
Total in-flight flits = 3 (0 measured)
latency change    = 1
throughput change = 1
Class 0:
Packet latency average = 22.3758
	minimum = 7
	maximum = 47
Network latency average = 22.3758
	minimum = 7
	maximum = 47
Slowest packet = 6677
Flit latency average = 22.3758
	minimum = 7
	maximum = 47
Slowest flit = 6677
Fragmentation average = 0
	minimum = 0
	maximum = 0
Injected packet rate average = 0.010375
	minimum = 0.004 (at node 6)
	maximum = 0.015 (at node 2)
Accepted packet rate average = 0.0103125
	minimum = 0.004 (at node 9)
	maximum = 0.014 (at node 10)
Injected flit rate average = 0.010375
	minimum = 0.004 (at node 6)
	maximum = 0.015 (at node 2)
Accepted flit rate average= 0.0103125
	minimum = 0.004 (at node 9)
	maximum = 0.014 (at node 10)
Injected packet length average = 1
Accepted packet length average = 1
Total in-flight flits = 1 (0 measured)
latency change    = 0.00399355
throughput change = 0.0424242
Class 0:
Packet latency average = 22.987
	minimum = 7
	maximum = 56
Network latency average = 22.987
	minimum = 7
	maximum = 56
Slowest packet = 6741
Flit latency average = 22.987
	minimum = 7
	maximum = 56
Slowest flit = 6741
Fragmentation average = 0
	minimum = 0
	maximum = 0
Injected packet rate average = 0.01
	minimum = 0.004 (at node 0)
	maximum = 0.014 (at node 4)
Accepted packet rate average = 0.009625
	minimum = 0.004 (at node 4)
	maximum = 0.02 (at node 8)
Injected flit rate average = 0.01
	minimum = 0.004 (at node 0)
	maximum = 0.014 (at node 4)
Accepted flit rate average= 0.009625
	minimum = 0.004 (at node 4)
	maximum = 0.02 (at node 8)
Injected packet length average = 1
Accepted packet length average = 1
Total in-flight flits = 4 (0 measured)
latency change    = 0.0265913
throughput change = 0.0714286
Warmed up ...Time used is 1500 cycles
Class 0:
Packet latency average = 21.7342
	minimum = 7
	maximum = 46
Network latency average = 21.7342
	minimum = 7
	maximum = 46
Slowest packet = 6826
Flit latency average = 21.8072
	minimum = 7
	maximum = 46
Slowest flit = 6826
Fragmentation average = 0
	minimum = 0
	maximum = 0
Injected packet rate average = 0.01025
	minimum = 0.002 (at node 13)
	maximum = 0.014 (at node 1)
Accepted packet rate average = 0.010375
	minimum = 0.006 (at node 4)
	maximum = 0.018 (at node 9)
Injected flit rate average = 0.01025
	minimum = 0.002 (at node 13)
	maximum = 0.014 (at node 1)
Accepted flit rate average= 0.010375
	minimum = 0.006 (at node 4)
	maximum = 0.018 (at node 9)
Injected packet length average = 1
Accepted packet length average = 1
Total in-flight flits = 3 (3 measured)
latency change    = 0.0576436
throughput change = 0.0722892
Class 0:
Packet latency average = 21.7039
	minimum = 7
	maximum = 46
Network latency average = 21.7039
	minimum = 7
	maximum = 46
Slowest packet = 6826
Flit latency average = 21.7436
	minimum = 7
	maximum = 46
Slowest flit = 6826
Fragmentation average = 0
	minimum = 0
	maximum = 0
Injected packet rate average = 0.00975
	minimum = 0.005 (at node 13)
	maximum = 0.013 (at node 14)
Accepted packet rate average = 0.00975
	minimum = 0.006 (at node 0)
	maximum = 0.018 (at node 12)
Injected flit rate average = 0.00975
	minimum = 0.005 (at node 13)
	maximum = 0.013 (at node 14)
Accepted flit rate average= 0.00975
	minimum = 0.006 (at node 0)
	maximum = 0.018 (at node 12)
Injected packet length average = 1
Accepted packet length average = 1
Total in-flight flits = 4 (4 measured)
latency change    = 0.00139283
throughput change = 0.0641026
Class 0:
Packet latency average = 21.8494
	minimum = 7
	maximum = 46
Network latency average = 21.8494
	minimum = 7
	maximum = 46
Slowest packet = 6826
Flit latency average = 21.8724
	minimum = 7
	maximum = 46
Slowest flit = 6826
Fragmentation average = 0
	minimum = 0
	maximum = 0
Injected packet rate average = 0.010125
	minimum = 0.00666667 (at node 2)
	maximum = 0.0153333 (at node 14)
Accepted packet rate average = 0.010125
	minimum = 0.006 (at node 3)
	maximum = 0.016 (at node 11)
Injected flit rate average = 0.010125
	minimum = 0.00666667 (at node 2)
	maximum = 0.0153333 (at node 14)
Accepted flit rate average= 0.010125
	minimum = 0.006 (at node 3)
	maximum = 0.016 (at node 11)
Injected packet length average = 1
Accepted packet length average = 1
Total in-flight flits = 4 (4 measured)
latency change    = 0.0066558
throughput change = 0.037037
Class 0:
Packet latency average = 22.2469
	minimum = 7
	maximum = 54
Network latency average = 22.2469
	minimum = 7
	maximum = 54
Slowest packet = 7042
Flit latency average = 22.2593
	minimum = 7
	maximum = 54
Slowest flit = 7042
Fragmentation average = 0
	minimum = 0
	maximum = 0
Injected packet rate average = 0.010125
	minimum = 0.008 (at node 11)
	maximum = 0.0145 (at node 14)
Accepted packet rate average = 0.010125
	minimum = 0.005 (at node 3)
	maximum = 0.014 (at node 11)
Injected flit rate average = 0.010125
	minimum = 0.008 (at node 11)
	maximum = 0.0145 (at node 14)
Accepted flit rate average= 0.010125
	minimum = 0.005 (at node 3)
	maximum = 0.014 (at node 11)
Injected packet length average = 1
Accepted packet length average = 1
Total in-flight flits = 4 (4 measured)
latency change    = 0.0178678
throughput change = 0
Class 0:
Packet latency average = 22.6216
	minimum = 7
	maximum = 54
Network latency average = 22.6216
	minimum = 7
	maximum = 54
Slowest packet = 7042
Flit latency average = 22.6278
	minimum = 7
	maximum = 54
Slowest flit = 7042
Fragmentation average = 0
	minimum = 0
	maximum = 0
Injected packet rate average = 0.01
	minimum = 0.0072 (at node 12)
	maximum = 0.0148 (at node 14)
Accepted packet rate average = 0.010075
	minimum = 0.006 (at node 3)
	maximum = 0.0132 (at node 11)
Injected flit rate average = 0.01
	minimum = 0.0072 (at node 12)
	maximum = 0.0148 (at node 14)
Accepted flit rate average= 0.010075
	minimum = 0.006 (at node 3)
	maximum = 0.0132 (at node 11)
Injected packet length average = 1
Accepted packet length average = 1
Total in-flight flits = 1 (1 measured)
latency change    = 0.0165629
throughput change = 0.00496278
Draining all recorded packets ...
Draining remaining packets ...
Time taken is 4073 cycles
Class 0:
Packet latency average = 20.9588
	minimum = 7
	maximum = 47
Network latency average = 20.9588
	minimum = 7
	maximum = 47
Slowest packet = 7208
Flit latency average = 20.9588
	minimum = 7
	maximum = 47
Slowest flit = 7208
Fragmentation average = 0
	minimum = 0
	maximum = 0
Injected packet rate average = 0.012875
	minimum = 0.002 (at node 2)
	maximum = 0.024 (at node 3)
Accepted packet rate average = 0.012125
	minimum = 0.006 (at node 3)
	maximum = 0.024 (at node 1)
Injected flit rate average = 0.012875
	minimum = 0.002 (at node 2)
	maximum = 0.024 (at node 3)
Accepted flit rate average= 0.012125
	minimum = 0.006 (at node 3)
	maximum = 0.024 (at node 1)
Injected packet length average = 1
Accepted packet length average = 1
Total in-flight flits = 6 (0 measured)
latency change    = 1
throughput change = 1
Class 0:
Packet latency average = 21.3125
	minimum = 7
	maximum = 47
Network latency average = 21.3125
	minimum = 7
	maximum = 47
Slowest packet = 7208
Flit latency average = 21.3125
	minimum = 7
	maximum = 47
Slowest flit = 7208
Fragmentation average = 0
	minimum = 0
	maximum = 0
Injected packet rate average = 0.012
	minimum = 0.004 (at node 12)
	maximum = 0.02 (at node 3)
Accepted packet rate average = 0.012
	minimum = 0.005 (at node 3)
	maximum = 0.02 (at node 1)
Injected flit rate average = 0.012
	minimum = 0.004 (at node 12)
	maximum = 0.02 (at node 3)
Accepted flit rate average= 0.012
	minimum = 0.005 (at node 3)
	maximum = 0.02 (at node 1)
Injected packet length average = 1
Accepted packet length average = 1
Total in-flight flits = 0 (0 measured)
latency change    = 0.0165976
throughput change = 0.0104167
Class 0:
Packet latency average = 23.3625
	minimum = 7
	maximum = 43
Network latency average = 23.3625
	minimum = 7
	maximum = 43
Slowest packet = 7372
Flit latency average = 23.3625
	minimum = 7
	maximum = 43
Slowest flit = 7372
Fragmentation average = 0
	minimum = 0
	maximum = 0
Injected packet rate average = 0.01025
	minimum = 0.004 (at node 0)
	maximum = 0.018 (at node 7)
Accepted packet rate average = 0.01
	minimum = 0.002 (at node 7)
[...]
	minimum = 7
	maximum = 47
Slowest packet = 31125
Flit latency average = 23.5769
	minimum = 7
	maximum = 47
Slowest flit = 31125
Fragmentation average = 0
	minimum = 0
	maximum = 0
Injected packet rate average = 0.009875
	minimum = 0.004 (at node 0)
	maximum = 0.026 (at node 13)
Accepted packet rate average = 0.00975
	minimum = 0.002 (at node 14)
	maximum = 0.016 (at node 1)
Injected flit rate average = 0.009875
	minimum = 0.004 (at node 0)
	maximum = 0.026 (at node 13)
Accepted flit rate average= 0.00975
	minimum = 0.002 (at node 14)
	maximum = 0.016 (at node 1)
Injected packet length average = 1
Accepted packet length average = 1
Total in-flight flits = 4 (0 measured)
latency change    = 0.0693469
throughput change = 0.00641026
Warmed up ...Time used is 1500 cycles
Class 0:
Packet latency average = 19.1159
	minimum = 7
	maximum = 42
Network latency average = 19.1159
	minimum = 7
	maximum = 42
Slowest packet = 31188
Flit latency average = 19.4384
	minimum = 7
	maximum = 42
Slowest flit = 31188
Fragmentation average = 0
	minimum = 0
	maximum = 0
Injected packet rate average = 0.009125
	minimum = 0.004 (at node 1)
	maximum = 0.018 (at node 14)
Accepted packet rate average = 0.009125
	minimum = 0.004 (at node 3)
	maximum = 0.016 (at node 0)
Injected flit rate average = 0.009125
	minimum = 0.004 (at node 1)
	maximum = 0.018 (at node 14)
Accepted flit rate average= 0.009125
	minimum = 0.004 (at node 3)
	maximum = 0.016 (at node 0)
Injected packet length average = 1
Accepted packet length average = 1
Total in-flight flits = 4 (4 measured)
latency change    = 0.233364
throughput change = 0.0684932
Class 0:
Packet latency average = 20.6667
	minimum = 7
	maximum = 50
Network latency average = 20.6667
	minimum = 7
	maximum = 50
Slowest packet = 31248
Flit latency average = 20.7771
	minimum = 7
	maximum = 50
Slowest flit = 31248
Fragmentation average = 0
	minimum = 0
	maximum = 0
Injected packet rate average = 0.01
	minimum = 0.005 (at node 15)
	maximum = 0.013 (at node 6)
Accepted packet rate average = 0.0098125
	minimum = 0.006 (at node 11)
	maximum = 0.014 (at node 0)
Injected flit rate average = 0.01
	minimum = 0.005 (at node 15)
	maximum = 0.013 (at node 6)
Accepted flit rate average= 0.0098125
	minimum = 0.006 (at node 11)
	maximum = 0.014 (at node 0)
Injected packet length average = 1
Accepted packet length average = 1
Total in-flight flits = 7 (7 measured)
latency change    = 0.0750351
throughput change = 0.0700637
Class 0:
Packet latency average = 21.5139
	minimum = 7
	maximum = 50
Network latency average = 21.5139
	minimum = 7
	maximum = 50
Slowest packet = 31248
Flit latency average = 21.5686
	minimum = 7
	maximum = 50
Slowest flit = 31248
Fragmentation average = 0
	minimum = 0
	maximum = 0
Injected packet rate average = 0.0105417
	minimum = 0.00666667 (at node 15)
	maximum = 0.0153333 (at node 10)
Accepted packet rate average = 0.010625
	minimum = 0.00666667 (at node 6)
	maximum = 0.014 (at node 0)
Injected flit rate average = 0.0105417
	minimum = 0.00666667 (at node 15)
	maximum = 0.0153333 (at node 10)
Accepted flit rate average= 0.010625
	minimum = 0.00666667 (at node 6)
	maximum = 0.014 (at node 0)
Injected packet length average = 1
Accepted packet length average = 1
Total in-flight flits = 2 (2 measured)
latency change    = 0.0393827
throughput change = 0.0764706
Class 0:
Packet latency average = 21.6358
	minimum = 7
	maximum = 52
Network latency average = 21.6358
	minimum = 7
	maximum = 52
Slowest packet = 31437
Flit latency average = 21.6768
	minimum = 7
	maximum = 52
Slowest flit = 31437
Fragmentation average = 0
	minimum = 0
	maximum = 0
Injected packet rate average = 0.0103438
	minimum = 0.007 (at node 12)
	maximum = 0.0155 (at node 10)
Accepted packet rate average = 0.01025
	minimum = 0.006 (at node 6)
	maximum = 0.0125 (at node 0)
Injected flit rate average = 0.0103438
	minimum = 0.007 (at node 12)
	maximum = 0.0155 (at node 10)
Accepted flit rate average= 0.01025
	minimum = 0.006 (at node 6)
	maximum = 0.0125 (at node 0)
Injected packet length average = 1
Accepted packet length average = 1
Total in-flight flits = 7 (7 measured)
latency change    = 0.00563225
throughput change = 0.0365854
Class 0:
Packet latency average = 21.6634
	minimum = 7
	maximum = 52
Network latency average = 21.6634
	minimum = 7
	maximum = 52
Slowest packet = 31437
Flit latency average = 21.6957
	minimum = 7
	maximum = 52
Slowest flit = 31437
Fragmentation average = 0
	minimum = 0
	maximum = 0
Injected packet rate average = 0.01035
	minimum = 0.0076 (at node 15)
	maximum = 0.0148 (at node 10)
Accepted packet rate average = 0.01035
	minimum = 0.0072 (at node 6)
	maximum = 0.0124 (at node 9)
Injected flit rate average = 0.01035
	minimum = 0.0076 (at node 15)
	maximum = 0.0148 (at node 10)
Accepted flit rate average= 0.01035
	minimum = 0.0072 (at node 6)
	maximum = 0.0124 (at node 9)
Injected packet length average = 1
Accepted packet length average = 1
Total in-flight flits = 4 (4 measured)
latency change    = 0.0012746
throughput change = 0.00966184
Class 0:
Packet latency average = 21.5638
	minimum = 7
	maximum = 52
Network latency average = 21.5638
	minimum = 7
	maximum = 52
Slowest packet = 31437
Flit latency average = 21.5918
	minimum = 7
	maximum = 52
Slowest flit = 31437
Fragmentation average = 0
	minimum = 0
	maximum = 0
Injected packet rate average = 0.0102083
	minimum = 0.00733333 (at node 12)
	maximum = 0.0146667 (at node 10)
Accepted packet rate average = 0.0102083
	minimum = 0.008 (at node 7)
	maximum = 0.0133333 (at node 9)
Injected flit rate average = 0.0102083
	minimum = 0.00733333 (at node 12)
	maximum = 0.0146667 (at node 10)
Accepted flit rate average= 0.0102083
	minimum = 0.008 (at node 7)
	maximum = 0.0133333 (at node 9)
Injected packet length average = 1
Accepted packet length average = 1
Total in-flight flits = 4 (4 measured)
latency change    = 0.00462018
throughput change = 0.0138776
Draining all recorded packets ...
Draining remaining packets ...
Time taken is 4525 cycles
Class 0:
Packet latency average = 22.8684
	minimum = 7
	maximum = 47
Network latency average = 22.8684
	minimum = 7
	maximum = 47
Slowest packet = 31661
Flit latency average = 22.8684
	minimum = 7
	maximum = 47
Slowest flit = 31661
Fragmentation average = 0
	minimum = 0
	maximum = 0
Injected packet rate average = 0.009625
	minimum = 0.002 (at node 15)
	maximum = 0.024 (at node 7)
Accepted packet rate average = 0.0095
	minimum = 0.004 (at node 0)
	maximum = 0.016 (at node 12)
Injected flit rate average = 0.009625
	minimum = 0.002 (at node 15)
	maximum = 0.024 (at node 7)
Accepted flit rate average= 0.0095
	minimum = 0.004 (at node 0)
	maximum = 0.016 (at node 12)
Injected packet length average = 1
Accepted packet length average = 1
Total in-flight flits = 1 (0 measured)
latency change    = 1
throughput change = 1
Class 0:
Packet latency average = 21.8592
	minimum = 7
	maximum = 47
Network latency average = 21.8592
	minimum = 7
	maximum = 47
Slowest packet = 31661
Flit latency average = 21.8592
	minimum = 7
	maximum = 47
Slowest flit = 31661
Fragmentation average = 0
	minimum = 0
	maximum = 0
Injected packet rate average = 0.009
	minimum = 0.002 (at node 15)
	maximum = 0.014 (at node 6)
Accepted packet rate average = 0.008875
	minimum = 0.003 (at node 13)
	maximum = 0.013 (at node 14)
Injected flit rate average = 0.009
	minimum = 0.002 (at node 15)
	maximum = 0.014 (at node 6)
Accepted flit rate average= 0.008875
	minimum = 0.003 (at node 13)
	maximum = 0.013 (at node 14)
Injected packet length average = 1
Accepted packet length average = 1
Total in-flight flits = 2 (0 measured)
latency change    = 0.0461713
throughput change = 0.0704225
Class 0:
Packet latency average = 21.8406
	minimum = 7
	maximum = 47
Network latency average = 21.8406
	minimum = 7
	maximum = 47
Slowest packet = 31860
Flit latency average = 21.8406
	minimum = 7
	maximum = 47
Slowest flit = 31860
Fragmentation average = 0
	minimum = 0
	maximum = 0
Injected packet rate average = 0.009125
	minimum = 0.002 (at node 7)
	maximum = 0.014 (at node 5)
Accepted packet rate average = 0.008625
	minimum = 0.002 (at node 10)
	maximum = 0.016 (at node 4)
Injected flit rate average = 0.009125
	minimum = 0.002 (at node 7)
	maximum = 0.014 (at node 5)
Accepted flit rate average= 0.008625
	minimum = 0.002 (at node 10)
	maximum = 0.016 (at node 4)
Injected packet length average = 1
Accepted packet length average = 1
Total in-flight flits = 6 (0 measured)
latency change    = 0.000850491
throughput change = 0.0289855
Warmed up ...Time used is 1500 cycles
Class 0:
Packet latency average = 21.4444
	minimum = 7
	maximum = 47
Network latency average = 21.4444
	minimum = 7
	maximum = 47
Slowest packet = 31914
Flit latency average = 21.6923
	minimum = 7
	maximum = 47
Slowest flit = 31914
Fragmentation average = 0
	minimum = 0
	maximum = 0
Injected packet rate average = 0.00925
	minimum = 0.002 (at node 8)
	maximum = 0.014 (at node 10)
Accepted packet rate average = 0.00975
	minimum = 0.004 (at node 4)
	maximum = 0.02 (at node 14)
Injected flit rate average = 0.00925
	minimum = 0.002 (at node 8)
	maximum = 0.014 (at node 10)
Accepted flit rate average= 0.00975
	minimum = 0.004 (at node 4)
	maximum = 0.02 (at node 14)
Injected packet length average = 1
Accepted packet length average = 1
Total in-flight flits = 2 (2 measured)
latency change    = 0.0184726
throughput change = 0.115385
Class 0:
Packet latency average = 20.8836
	minimum = 7
	maximum = 49
Network latency average = 20.8836
	minimum = 7
	maximum = 49
Slowest packet = 32012
Flit latency average = 21.0329
	minimum = 7
	maximum = 49
Slowest flit = 32012
Fragmentation average = 0
	minimum = 0
	maximum = 0
Injected packet rate average = 0.009375
	minimum = 0.003 (at node 8)
	maximum = 0.012 (at node 10)
Accepted packet rate average = 0.0095
	minimum = 0.004 (at node 6)
	maximum = 0.016 (at node 10)
Injected flit rate average = 0.009375
	minimum = 0.003 (at node 8)
	maximum = 0.012 (at node 10)
Accepted flit rate average= 0.0095
	minimum = 0.004 (at node 6)
	maximum = 0.016 (at node 10)
Injected packet length average = 1
Accepted packet length average = 1
Total in-flight flits = 4 (4 measured)
latency change    = 0.0268576
throughput change = 0.0263158
Class 0:
Packet latency average = 20.9955
	minimum = 7
	maximum = 49
Network latency average = 20.9955
	minimum = 7
	maximum = 49
Slowest packet = 32012
Flit latency average = 21.0921
	minimum = 7
	maximum = 49
Slowest flit = 32012
Fragmentation average = 0
	minimum = 0
	maximum = 0
Injected packet rate average = 0.00925
	minimum = 0.006 (at node 8)
	maximum = 0.0126667 (at node 10)
Accepted packet rate average = 0.0095
	minimum = 0.00533333 (at node 13)
	maximum = 0.0126667 (at node 7)
Injected flit rate average = 0.00925
	minimum = 0.006 (at node 8)
	maximum = 0.0126667 (at node 10)
Accepted flit rate average= 0.0095
	minimum = 0.00533333 (at node 13)
	maximum = 0.0126667 (at node 7)
Injected packet length average = 1
Accepted packet length average = 1
Total in-flight flits = 0 (0 measured)
latency change    = 0.00533133
throughput change = 0
Class 0:
Packet latency average = 21.8283
	minimum = 7
	maximum = 54
Network latency average = 21.8283
	minimum = 7
	maximum = 54
Slowest packet = 32099
Flit latency average = 21.8845
	minimum = 7
	maximum = 54
Slowest flit = 32099
Fragmentation average = 0
	minimum = 0
	maximum = 0
Injected packet rate average = 0.0094375
	minimum = 0.0065 (at node 11)
	maximum = 0.0125 (at node 10)
Accepted packet rate average = 0.00946875
	minimum = 0.0045 (at node 13)
	maximum = 0.013 (at node 7)
Injected flit rate average = 0.0094375
	minimum = 0.0065 (at node 11)
	maximum = 0.0125 (at node 10)
Accepted flit rate average= 0.00946875
	minimum = 0.0045 (at node 13)
	maximum = 0.013 (at node 7)
Injected packet length average = 1
Accepted packet length average = 1
Total in-flight flits = 5 (5 measured)
latency change    = 0.0381518
throughput change = 0.00330033
Draining all recorded packets ...
Draining remaining packets ...
Time taken is 3534 cycles
Class 0:
Packet latency average = 20.6081
	minimum = 7
	maximum = 42
Network latency average = 20.6081
	minimum = 7
	maximum = 42
Slowest packet = 32199
Flit latency average = 20.6081
	minimum = 7
	maximum = 42
Slowest flit = 32199
Fragmentation average = 0
	minimum = 0
	maximum = 0
Injected packet rate average = 0.009625
	minimum = 0.002 (at node 3)
	maximum = 0.016 (at node 2)
Accepted packet rate average = 0.00925
	minimum = 0.002 (at node 13)
	maximum = 0.018 (at node 0)
Injected flit rate average = 0.009625
	minimum = 0.002 (at node 3)
	maximum = 0.016 (at node 2)
Accepted flit rate average= 0.00925
	minimum = 0.002 (at node 13)
	maximum = 0.018 (at node 0)
Injected packet length average = 1
Accepted packet length average = 1
Total in-flight flits = 3 (0 measured)
latency change    = 1
throughput change = 1
Class 0:
Packet latency average = 21.0897
	minimum = 7
	maximum = 42
Network latency average = 21.0897
	minimum = 7
	maximum = 42
Slowest packet = 32199
Flit latency average = 21.0897
	minimum = 7
	maximum = 42
Slowest flit = 32199
Fragmentation average = 0
	minimum = 0
	maximum = 0
Injected packet rate average = 0.0100625
	minimum = 0.006 (at node 15)
	maximum = 0.019 (at node 8)
Accepted packet rate average = 0.00975
	minimum = 0.005 (at node 3)
	maximum = 0.016 (at node 6)
Injected flit rate average = 0.0100625
	minimum = 0.006 (at node 15)
	maximum = 0.019 (at node 8)
Accepted flit rate average= 0.00975
	minimum = 0.005 (at node 3)
	maximum = 0.016 (at node 6)
Injected packet length average = 1
Accepted packet length average = 1
Total in-flight flits = 5 (0 measured)
latency change    = 0.0228374
throughput change = 0.0512821
Class 0:
Packet latency average = 20.925
	minimum = 7
	maximum = 37
Network latency average = 20.925
	minimum = 7
	maximum = 37
Slowest packet = 32341
Flit latency average = 20.925
	minimum = 7
	maximum = 37
Slowest flit = 32341
Fragmentation average = 0
	minimum = 0
	maximum = 0
Injected packet rate average = 0.01
	minimum = 0.006 (at node 0)
	maximum = 0.022 (at node 5)
Accepted packet rate average = 0.01
	minimum = 0.004 (at node 8)
	maximum = 0.016 (at node 2)
Injected flit rate average = 0.01
	minimum = 0.006 (at node 0)
	maximum = 0.022 (at node 5)
Accepted flit rate average= 0.01
	minimum = 0.004 (at node 8)
	maximum = 0.016 (at node 2)
Injected packet length average = 1
Accepted packet length average = 1
Total in-flight flits = 5 (0 measured)
latency change    = 0.00787305
throughput change = 0.025
Warmed up ...Time used is 1500 cycles
Class 0:
Packet latency average = 21.1077
	minimum = 7
	maximum = 47
Network latency average = 21.1077
	minimum = 7
	maximum = 47
Slowest packet = 32472
Flit latency average = 21.1714
	minimum = 7
	maximum = 47
Slowest flit = 32472
Fragmentation average = 0
	minimum = 0
	maximum = 0
Injected packet rate average = 0.008375
	minimum = 0.004 (at node 3)
	maximum = 0.018 (at node 9)
Accepted packet rate average = 0.00875
	minimum = 0 (at node 0)
	maximum = 0.016 (at node 2)
Injected flit rate average = 0.008375
	minimum = 0.004 (at node 3)
	maximum = 0.018 (at node 9)
Accepted flit rate average= 0.00875
	minimum = 0 (at node 0)
	maximum = 0.016 (at node 2)
Injected packet length average = 1
Accepted packet length average = 1
Total in-flight flits = 2 (2 measured)
latency change    = 0.00865525
throughput change = 0.142857
Class 0:
Packet latency average = 21.4595
	minimum = 7
	maximum = 47
Network latency average = 21.4595
	minimum = 7
	maximum = 47
Slowest packet = 32472
Flit latency average = 21.4771
	minimum = 7
	maximum = 47
Slowest flit = 32472
Fragmentation average = 0
	minimum = 0
	maximum = 0
Injected packet rate average = 0.009375
	minimum = 0.004 (at node 1)
	maximum = 0.016 (at node 9)
Accepted packet rate average = 0.0095625
	minimum = 0.004 (at node 0)
	maximum = 0.017 (at node 2)
Injected flit rate average = 0.009375
	minimum = 0.004 (at node 1)
	maximum = 0.016 (at node 9)
Accepted flit rate average= 0.0095625
	minimum = 0.004 (at node 0)
	maximum = 0.017 (at node 2)
Injected packet length average = 1
Accepted packet length average = 1
Total in-flight flits = 2 (2 measured)
latency change    = 0.0163922
throughput change = 0.0849673
Class 0:
Packet latency average = 21.9449
	minimum = 7
	maximum = 47
Network latency average = 21.9449
	minimum = 7
	maximum = 47
Slowest packet = 32472
Flit latency average = 21.9461
	minimum = 7
	maximum = 47
Slowest flit = 32472
Fragmentation average = 0
	minimum = 0
	maximum = 0
Injected packet rate average = 0.009875
	minimum = 0.00533333 (at node 1)
	maximum = 0.016 (at node 2)
Accepted packet rate average = 0.0100417
	minimum = 0.006 (at node 0)
	maximum = 0.0153333 (at node 2)
Injected flit rate average = 0.009875
	minimum = 0.00533333 (at node 1)
	maximum = 0.016 (at node 2)
Accepted flit rate average= 0.0100417
	minimum = 0.006 (at node 0)
	maximum = 0.0153333 (at node 2)
Injected packet length average = 1
Accepted packet length average = 1
Total in-flight flits = 1 (1 measured)
latency change    = 0.0221216
throughput change = 0.0477178
Class 0:
Packet latency average = 22.1639
	minimum = 7
	maximum = 48
Network latency average = 22.1639
	minimum = 7
	maximum = 48
Slowest packet = 32672
Flit latency average = 22.1613
	minimum = 7
	maximum = 48
Slowest flit = 32672
Fragmentation average = 0
	minimum = 0
	maximum = 0
Injected packet rate average = 0.0096875
	minimum = 0.0055 (at node 1)
	maximum = 0.015 (at node 9)
Accepted packet rate average = 0.0096875
	minimum = 0.0065 (at node 0)
	maximum = 0.0145 (at node 2)
Injected flit rate average = 0.0096875
	minimum = 0.0055 (at node 1)
	maximum = 0.015 (at node 9)
Accepted flit rate average= 0.0096875
	minimum = 0.0065 (at node 0)
	maximum = 0.0145 (at node 2)
Injected packet length average = 1
Accepted packet length average = 1
Total in-flight flits = 5 (5 measured)
latency change    = 0.00988178
throughput change = 0.0365591
Class 0:
Packet latency average = 22.2487
	minimum = 7
	maximum = 48
Network latency average = 22.2487
	minimum = 7
	maximum = 48
Slowest packet = 32672
Flit latency average = 22.2455
	minimum = 7
	maximum = 48
Slowest flit = 32672
Fragmentation average = 0
	minimum = 0
	maximum = 0
Injected packet rate average = 0.009675
	minimum = 0.006 (at node 1)
	maximum = 0.0144 (at node 9)
Accepted packet rate average = 0.009675
	minimum = 0.006 (at node 11)
	maximum = 0.014 (at node 2)
Injected flit rate average = 0.009675
	minimum = 0.006 (at node 1)
	maximum = 0.0144 (at node 9)
Accepted flit rate average= 0.009675
	minimum = 0.006 (at node 11)
	maximum = 0.014 (at node 2)
Injected packet length average = 1
Accepted packet length average = 1
Total in-flight flits = 5 (5 measured)
latency change    = 0.00380951
throughput change = 0.00129199
Draining all recorded packets ...
Draining remaining packets ...
Time taken is 4043 cycles
====== Overall Traffic Statistics ======
====== Traffic class 0 ======
Packet latency average = 22.0205 (50 samples)
	minimum = 7 (50 samples)
	maximum = 50.66 (50 samples)
Network latency average = 22.0205 (50 samples)
	minimum = 7 (50 samples)
	maximum = 50.66 (50 samples)
Flit latency average = 22.0603 (50 samples)
	minimum = 7 (50 samples)
	maximum = 50.74 (50 samples)
Fragmentation average = 0 (50 samples)
	minimum = 0 (50 samples)
	maximum = 0 (50 samples)
Injected packet rate average = 0.0100015 (50 samples)
	minimum = 0.00695457 (50 samples)
	maximum = 0.013526 (50 samples)
Accepted packet rate average = 0.00999585 (50 samples)
	minimum = 0.00661438 (50 samples)
	maximum = 0.0135995 (50 samples)
Injected flit rate average = 0.0100015 (50 samples)
	minimum = 0.00695457 (50 samples)
	maximum = 0.013526 (50 samples)
Accepted flit rate average = 0.00999585 (50 samples)
	minimum = 0.00661438 (50 samples)
	maximum = 0.0135995 (50 samples)
Injected packet size average = 1 (50 samples)
Accepted packet size average = 1 (50 samples)
Hops average = 3.96172 (50 samples)
Total run time 4.76587
