BEGIN Configuration File: /tmp/tmpvixgd3ta.cfg
topology = mesh;
k = 4;
n = 2;
routing_function = planar_adapt;
num_vcs = 4;
vc_buf_size = 4;
wait_for_tail_credit = 1;
vc_allocator = islip;
sw_allocator = islip;
alloc_iters = 1;
credit_delay = 2;
routing_delay = 1;
vc_alloc_delay = 1;
sw_alloc_delay = 1;
input_speedup = 2;
output_speedup = 1;
internal_speedup = 1.0;
traffic = uniform;
packet_size = 1;
sim_type = latency;
injection_rate = 0.01;
warmup_periods = 3;
sample_period = 500;
sim_count = 50;
seed = 1;
link_failures = 2;
fail_seed = 303;

END Configuration File: /tmp/tmpvixgd3ta.cfg
failure at node 9, channel 2 (1/2)
failure at node 15, channel 3 (2/2)
Class 0:
Packet latency average = 21.5632
	minimum = 7
	maximum = 48
Network latency average = 21.5632
	minimum = 7
	maximum = 48
Slowest packet = 26
Flit latency average = 21.5632
	minimum = 7
	maximum = 48
Slowest flit = 26
Fragmentation average = 0
	minimum = 0
	maximum = 0
Injected packet rate average = 0.011125
	minimum = 0.006 (at node 1)
	maximum = 0.022 (at node 7)
Accepted packet rate average = 0.010875
	minimum = 0.004 (at node 6)
	maximum = 0.02 (at node 2)
Injected flit rate average = 0.011125
	minimum = 0.006 (at node 1)
	maximum = 0.022 (at node 7)
Accepted flit rate average= 0.010875
	minimum = 0.004 (at node 6)
	maximum = 0.02 (at node 2)
Injected packet length average = 1
Accepted packet length average = 1
Total in-flight flits = 2 (0 measured)
latency change    = 1
throughput change = 1
Class 0:
Packet latency average = 21.5706
	minimum = 7
	maximum = 52
Network latency average = 21.5706
	minimum = 7
	maximum = 52
Slowest packet = 93
Flit latency average = 21.5706
	minimum = 7
	maximum = 52
Slowest flit = 93
Fragmentation average = 0
	minimum = 0
	maximum = 0
Injected packet rate average = 0.0108125
	minimum = 0.006 (at node 2)
	maximum = 0.019 (at node 7)
Accepted packet rate average = 0.010625
	minimum = 0.004 (at node 6)
	maximum = 0.015 (at node 2)
Injected flit rate average = 0.0108125
	minimum = 0.006 (at node 2)
	maximum = 0.019 (at node 7)
Accepted flit rate average= 0.010625
	minimum = 0.004 (at node 6)
	maximum = 0.015 (at node 2)
Injected packet length average = 1
Accepted packet length average = 1
Total in-flight flits = 3 (0 measured)
latency change    = 0.000341662
throughput change = 0.0235294
Class 0:
Packet latency average = 20.1127
	minimum = 7
	maximum = 57
Network latency average = 20.1127
	minimum = 7
	maximum = 57
Slowest packet = 193
Flit latency average = 20.1127
	minimum = 7
	maximum = 57
Slowest flit = 193
Fragmentation average = 0
	minimum = 0
	maximum = 0
Injected packet rate average = 0.009
	minimum = 0.002 (at node 6)
	maximum = 0.026 (at node 12)
Accepted packet rate average = 0.008875
	minimum = 0.002 (at node 13)
	maximum = 0.016 (at node 9)
Injected flit rate average = 0.009
	minimum = 0.002 (at node 6)
	maximum = 0.026 (at node 12)
Accepted flit rate average= 0.008875
	minimum = 0.002 (at node 13)
	maximum = 0.016 (at node 9)
Injected packet length average = 1
Accepted packet length average = 1
Total in-flight flits = 4 (0 measured)
latency change    = 0.0724872
throughput change = 0.197183
Warmed up ...Time used is 1500 cycles
Class 0:
Packet latency average = 20.3173
	minimum = 7
	maximum = 52
Network latency average = 20.3173
	minimum = 7
	maximum = 52
Slowest packet = 325
Flit latency average = 20.3796
	minimum = 7
	maximum = 52
Slowest flit = 325
Fragmentation average = 0
	minimum = 0
	maximum = 0
Injected packet rate average = 0.0135
	minimum = 0.006 (at node 2)
	maximum = 0.026 (at node 8)
Accepted packet rate average = 0.0135
	minimum = 0.004 (at node 0)
	maximum = 0.024 (at node 9)
Injected flit rate average = 0.0135
	minimum = 0.006 (at node 2)
	maximum = 0.026 (at node 8)
Accepted flit rate average= 0.0135
	minimum = 0.004 (at node 0)
	maximum = 0.024 (at node 9)
Injected packet length average = 1
Accepted packet length average = 1
Total in-flight flits = 4 (4 measured)
latency change    = 0.0100718
throughput change = 0.342593
Class 0:
Packet latency average = 19.9421
	minimum = 7
	maximum = 53
Network latency average = 19.9421
	minimum = 7
	maximum = 53
Slowest packet = 397
Flit latency average = 19.9845
	minimum = 7
	maximum = 53
Slowest flit = 397
Fragmentation average = 0
	minimum = 0
	maximum = 0
Injected packet rate average = 0.0119375
	minimum = 0.007 (at node 0)
	maximum = 0.019 (at node 8)
Accepted packet rate average = 0.012125
	minimum = 0.002 (at node 0)
	maximum = 0.018 (at node 9)
Injected flit rate average = 0.0119375
	minimum = 0.007 (at node 0)
	maximum = 0.019 (at node 8)
Accepted flit rate average= 0.012125
	minimum = 0.002 (at node 0)
	maximum = 0.018 (at node 9)
Injected packet length average = 1
Accepted packet length average = 1
Total in-flight flits = 1 (1 measured)
latency change    = 0.0188146
throughput change = 0.113402
Class 0:
Packet latency average = 20.1353
	minimum = 7
	maximum = 57
Network latency average = 20.1353
	minimum = 7
	maximum = 57
Slowest packet = 442
Flit latency average = 20.163
	minimum = 7
	maximum = 57
Slowest flit = 442
Fragmentation average = 0
	minimum = 0
	maximum = 0
Injected packet rate average = 0.0112083
	minimum = 0.006 (at node 0)
	maximum = 0.0153333 (at node 8)
Accepted packet rate average = 0.01125
	minimum = 0.004 (at node 0)
	maximum = 0.0153333 (at node 4)
Injected flit rate average = 0.0112083
	minimum = 0.006 (at node 0)
	maximum = 0.0153333 (at node 8)
Accepted flit rate average= 0.01125
	minimum = 0.004 (at node 0)
	maximum = 0.0153333 (at node 4)
Injected packet length average = 1
Accepted packet length average = 1
Total in-flight flits = 3 (3 measured)
latency change    = 0.00959671
throughput change = 0.0777778
Class 0:
Packet latency average = 20.2271
	minimum = 7
	maximum = 57
Network latency average = 20.2271
	minimum = 7
	maximum = 57
Slowest packet = 442
Flit latency average = 20.2478
	minimum = 7
	maximum = 57
Slowest flit = 442
Fragmentation average = 0
	minimum = 0
	maximum = 0
Injected packet rate average = 0.0106875
	minimum = 0.0055 (at node 0)
	maximum = 0.0135 (at node 8)
Accepted packet rate average = 0.0107188
	minimum = 0.004 (at node 0)
	maximum = 0.014 (at node 4)
Injected flit rate average = 0.0106875
	minimum = 0.0055 (at node 0)
	maximum = 0.0135 (at node 8)
Accepted flit rate average= 0.0107188
	minimum = 0.004 (at node 0)
	maximum = 0.014 (at node 4)
Injected packet length average = 1
Accepted packet length average = 1
Total in-flight flits = 3 (3 measured)
latency change    = 0.00453847
throughput change = 0.0495627
Class 0:
Packet latency average = 20.1866
	minimum = 7
	maximum = 57
Network latency average = 20.1866
	minimum = 7
	maximum = 57
Slowest packet = 442
Flit latency average = 20.2038
	minimum = 7
	maximum = 57
Slowest flit = 442
Fragmentation average = 0
	minimum = 0
	maximum = 0
Injected packet rate average = 0.010475
	minimum = 0.006 (at node 0)
	maximum = 0.0132 (at node 6)
Accepted packet rate average = 0.01055
	minimum = 0.0056 (at node 0)
	maximum = 0.0132 (at node 15)
Injected flit rate average = 0.010475
	minimum = 0.006 (at node 0)
	maximum = 0.0132 (at node 6)
Accepted flit rate average= 0.01055
	minimum = 0.0056 (at node 0)
	maximum = 0.0132 (at node 15)
Injected packet length average = 1
Accepted packet length average = 1
Total in-flight flits = 1 (1 measured)
latency change    = 0.00200805
throughput change = 0.0159953
Class 0:
Packet latency average = 20.3566
	minimum = 7
	maximum = 57
Network latency average = 20.3566
	minimum = 7
	maximum = 57
Slowest packet = 442
Flit latency average = 20.3696
	minimum = 7
	maximum = 57
Slowest flit = 442
Fragmentation average = 0
	minimum = 0
	maximum = 0
Injected packet rate average = 0.0105208
	minimum = 0.00733333 (at node 0)
	maximum = 0.0133333 (at node 14)
Accepted packet rate average = 0.0105417
	minimum = 0.00666667 (at node 0)
	maximum = 0.0133333 (at node 4)
Injected flit rate average = 0.0105208
	minimum = 0.00733333 (at node 0)
	maximum = 0.0133333 (at node 14)
Accepted flit rate average= 0.0105417
	minimum = 0.00666667 (at node 0)
	maximum = 0.0133333 (at node 4)
Injected packet length average = 1
Accepted packet length average = 1
Total in-flight flits = 3 (3 measured)
latency change    = 0.00834968
throughput change = 0.000790514
Draining all recorded packets ...
Draining remaining packets ...
Time taken is 4565 cycles
Class 0:
Packet latency average = 21.1585
	minimum = 7
	maximum = 47
Network latency average = 21.1585
	minimum = 7
	maximum = 47
Slowest packet = 758
Flit latency average = 21.1585
	minimum = 7
	maximum = 47
Slowest flit = 758
Fragmentation average = 0
	minimum = 0
	maximum = 0
Injected packet rate average = 0.011375
	minimum = 0.002 (at node 5)
	maximum = 0.02 (at node 1)
Accepted packet rate average = 0.01025
	minimum = 0.006 (at node 1)
	maximum = 0.016 (at node 2)
Injected flit rate average = 0.011375
	minimum = 0.002 (at node 5)
	maximum = 0.02 (at node 1)
Accepted flit rate average= 0.01025
	minimum = 0.006 (at node 1)
	maximum = 0.016 (at node 2)
Injected packet length average = 1
Accepted packet length average = 1
Total in-flight flits = 9 (0 measured)
latency change    = 1
throughput change = 1
Class 0:
Packet latency average = 20.8452
	minimum = 7
	maximum = 47
Network latency average = 20.8452
	minimum = 7
	maximum = 47
Slowest packet = 758
Flit latency average = 20.8452
	minimum = 7
	maximum = 47
Slowest flit = 758
Fragmentation average = 0
	minimum = 0
	maximum = 0
Injected packet rate average = 0.0099375
	minimum = 0.003 (at node 5)
	maximum = 0.013 (at node 2)
Accepted packet rate average = 0.0096875
	minimum = 0.006 (at node 6)
	maximum = 0.014 (at node 13)
Injected flit rate average = 0.0099375
	minimum = 0.003 (at node 5)
	maximum = 0.013 (at node 2)
Accepted flit rate average= 0.0096875
	minimum = 0.006 (at node 6)
	maximum = 0.014 (at node 13)
Injected packet length average = 1
Accepted packet length average = 1
Total in-flight flits = 4 (0 measured)
latency change    = 0.0150335
throughput change = 0.0580645
Class 0:
Packet latency average = 20.4559
	minimum = 7
	maximum = 47
Network latency average = 20.4559
	minimum = 7
	maximum = 47
Slowest packet = 905
Flit latency average = 20.4559
	minimum = 7
	maximum = 47
Slowest flit = 905
Fragmentation average = 0
	minimum = 0
	maximum = 0
Injected packet rate average = 0.008375
	minimum = 0.002 (at node 15)
	maximum = 0.016 (at node 0)
Accepted packet rate average = 0.0085
	minimum = 0.004 (at node 0)
	maximum = 0.016 (at node 9)
Injected flit rate average = 0.008375
	minimum = 0.002 (at node 15)
	maximum = 0.016 (at node 0)
Accepted flit rate average= 0.0085
	minimum = 0.004 (at node 0)
	maximum = 0.016 (at node 9)
Injected packet length average = 1
Accepted packet length average = 1
Total in-flight flits = 3 (0 measured)
latency change    = 0.0190302
throughput change = 0.139706
Warmed up ...Time used is 1500 cycles
Class 0:
Packet latency average = 19.8857
	minimum = 7
	maximum = 57
Network latency average = 19.8857
	minimum = 7
	maximum = 57
Slowest packet = 1012
Flit latency average = 20.3973
	minimum = 7
	maximum = 57
Slowest flit = 1012
Fragmentation average = 0
	minimum = 0
	maximum = 0
Injected packet rate average = 0.009
	minimum = 0.004 (at node 1)
	maximum = 0.016 (at node 10)
Accepted packet rate average = 0.009125
	minimum = 0.004 (at node 6)
	maximum = 0.018 (at node 7)
Injected flit rate average = 0.009
	minimum = 0.004 (at node 1)
	maximum = 0.016 (at node 10)
Accepted flit rate average= 0.009125
	minimum = 0.004 (at node 6)
	maximum = 0.018 (at node 7)
Injected packet length average = 1
Accepted packet length average = 1
Total in-flight flits = 2 (2 measured)
latency change    = 0.0286722
throughput change = 0.0684932
Class 0:
Packet latency average = 20.5563
	minimum = 7
	maximum = 57
Network latency average = 20.5563
	minimum = 7
	maximum = 57
Slowest packet = 1012
Flit latency average = 20.8
	minimum = 7
	maximum = 57
Slowest flit = 1012
Fragmentation average = 0
	minimum = 0
	maximum = 0
Injected packet rate average = 0.009
	minimum = 0.004 (at node 14)
	maximum = 0.014 (at node 9)
Accepted packet rate average = 0.0090625
	minimum = 0.005 (at node 15)
	maximum = 0.012 (at node 9)
Injected flit rate average = 0.009
	minimum = 0.004 (at node 14)
	maximum = 0.014 (at node 9)
Accepted flit rate average= 0.0090625
	minimum = 0.005 (at node 15)
	maximum = 0.012 (at node 9)
Injected packet length average = 1
Accepted packet length average = 1
Total in-flight flits = 2 (2 measured)
latency change    = 0.0326237
throughput change = 0.00689655
Class 0:
Packet latency average = 20.6261
	minimum = 7
	maximum = 57
Network latency average = 20.6261
	minimum = 7
	maximum = 57
Slowest packet = 1012
Flit latency average = 20.7822
	minimum = 7
	maximum = 57
Slowest flit = 1012
Fragmentation average = 0
	minimum = 0
	maximum = 0
Injected packet rate average = 0.00941667
	minimum = 0.00466667 (at node 1)
	maximum = 0.0133333 (at node 4)
Accepted packet rate average = 0.009375
	minimum = 0.00533333 (at node 15)
	maximum = 0.0133333 (at node 11)
Injected flit rate average = 0.00941667
	minimum = 0.00466667 (at node 1)
	maximum = 0.0133333 (at node 4)
Accepted flit rate average= 0.009375
	minimum = 0.00533333 (at node 15)
	maximum = 0.0133333 (at node 11)
Injected packet length average = 1
Accepted packet length average = 1
Total in-flight flits = 4 (4 measured)
latency change    = 0.00338348
throughput change = 0.0333333
Class 0:
Packet latency average = 20.3151
	minimum = 7
	maximum = 57
Network latency average = 20.3151
	minimum = 7
	maximum = 57
Slowest packet = 1012
Flit latency average = 20.4299
	minimum = 7
	maximum = 57
Slowest flit = 1012
Fragmentation average = 0
	minimum = 0
	maximum = 0
Injected packet rate average = 0.00990625
	minimum = 0.0055 (at node 1)
	maximum = 0.014 (at node 4)
Accepted packet rate average = 0.0098125
	minimum = 0.006 (at node 7)
	maximum = 0.015 (at node 2)
Injected flit rate average = 0.00990625
	minimum = 0.0055 (at node 1)
	maximum = 0.014 (at node 4)
Accepted flit rate average= 0.0098125
	minimum = 0.006 (at node 7)
	maximum = 0.015 (at node 2)
Injected packet length average = 1
Accepted packet length average = 1
Total in-flight flits = 6 (6 measured)
latency change    = 0.0153095
throughput change = 0.044586
Draining all recorded packets ...
Draining remaining packets ...
Time taken is 3543 cycles
Class 0:
Packet latency average = 20.375
	minimum = 7
	maximum = 57
Network latency average = 20.375
	minimum = 7
	maximum = 57
Slowest packet = 1373
Flit latency average = 20.375
	minimum = 7
	maximum = 57
Slowest flit = 1373
Fragmentation average = 0
	minimum = 0
	maximum = 0
Injected packet rate average = 0.011375
	minimum = 0.006 (at node 5)
	maximum = 0.018 (at node 7)
Accepted packet rate average = 0.011
	minimum = 0.004 (at node 0)
	maximum = 0.02 (at node 2)
Injected flit rate average = 0.011375
	minimum = 0.006 (at node 5)
	maximum = 0.018 (at node 7)
Accepted flit rate average= 0.011
	minimum = 0.004 (at node 0)
	maximum = 0.02 (at node 2)
Injected packet length average = 1
Accepted packet length average = 1
Total in-flight flits = 3 (0 measured)
latency change    = 1
throughput change = 1
Class 0:
Packet latency average = 20.6875
	minimum = 7
	maximum = 57
Network latency average = 20.6875
	minimum = 7
	maximum = 57
Slowest packet = 1373
Flit latency average = 20.6875
	minimum = 7
	maximum = 57
Slowest flit = 1373
Fragmentation average = 0
	minimum = 0
	maximum = 0
Injected packet rate average = 0.0100625
	minimum = 0.007 (at node 5)
	maximum = 0.012 (at node 6)
Accepted packet rate average = 0.01
	minimum = 0.003 (at node 7)
	maximum = 0.015 (at node 13)
Injected flit rate average = 0.0100625
	minimum = 0.007 (at node 5)
	maximum = 0.012 (at node 6)
Accepted flit rate average= 0.01
	minimum = 0.003 (at node 7)
	maximum = 0.015 (at node 13)
Injected packet length average = 1
Accepted packet length average = 1
Total in-flight flits = 1 (0 measured)
latency change    = 0.0151057
throughput change = 0.1
Class 0:
Packet latency average = 22.5
	minimum = 7
	maximum = 57
Network latency average = 22.5
	minimum = 7
	maximum = 57
Slowest packet = 1485
Flit latency average = 22.5
	minimum = 7
	maximum = 57
Slowest flit = 1485
Fragmentation average = 0
	minimum = 0
	maximum = 0
Injected packet rate average = 0.0095
	minimum = 0.002 (at node 15)
	maximum = 0.018 (at node 14)
Accepted packet rate average = 0.0095
	minimum = 0 (at node 2)
	maximum = 0.018 (at node 5)
Injected flit rate average = 0.0095
	minimum = 0.002 (at node 15)
	maximum = 0.018 (at node 14)
Accepted flit rate average= 0.0095
	minimum = 0 (at node 2)
	maximum = 0.018 (at node 5)
Injected packet length average = 1
Accepted packet length average = 1
Total in-flight flits = 1 (0 measured)
latency change    = 0.0805556
throughput change = 0.0526316
Warmed up ...Time used is 1500 cycles
Class 0:
Packet latency average = 19.4419
	minimum = 7
	maximum = 37
Network latency average = 19.4419
	minimum = 7
	maximum = 37
Slowest packet = 1586
Flit latency average = 19.4713
	minimum = 7
	maximum = 37
Slowest flit = 1586
Fragmentation average = 0
	minimum = 0
	maximum = 0
Injected packet rate average = 0.011
	minimum = 0.006 (at node 0)
	maximum = 0.02 (at node 2)
Accepted packet rate average = 0.010875
	minimum = 0.002 (at node 3)
	maximum = 0.022 (at node 15)
Injected flit rate average = 0.011
	minimum = 0.006 (at node 0)
	maximum = 0.02 (at node 2)
Accepted flit rate average= 0.010875
	minimum = 0.002 (at node 3)
	maximum = 0.022 (at node 15)
Injected packet length average = 1
Accepted packet length average = 1
Total in-flight flits = 2 (2 measured)
latency change    = 0.157297
throughput change = 0.126437
Class 0:
Packet latency average = 20.6221
	minimum = 7
	maximum = 47
Network latency average = 20.6221
	minimum = 7
	maximum = 47
Slowest packet = 1642
Flit latency average = 20.6301
	minimum = 7
	maximum = 47
Slowest flit = 1642
Fragmentation average = 0
	minimum = 0
	maximum = 0
Injected packet rate average = 0.011
	minimum = 0.006 (at node 8)
	maximum = 0.018 (at node 6)
Accepted packet rate average = 0.0108125
	minimum = 0.004 (at node 3)
	maximum = 0.021 (at node 4)
Injected flit rate average = 0.011
	minimum = 0.006 (at node 8)
	maximum = 0.018 (at node 6)
Accepted flit rate average= 0.0108125
	minimum = 0.004 (at node 3)
	maximum = 0.021 (at node 4)
Injected packet length average = 1
Accepted packet length average = 1
Total in-flight flits = 4 (4 measured)
latency change    = 0.0572315
throughput change = 0.00578035
Class 0:
Packet latency average = 20.9627
	minimum = 7
	maximum = 47
Network latency average = 20.9627
	minimum = 7
	maximum = 47
Slowest packet = 1642
Flit latency average = 20.9669
	minimum = 7
	maximum = 47
Slowest flit = 1642
Fragmentation average = 0
	minimum = 0
	maximum = 0
Injected packet rate average = 0.0102083
	minimum = 0.00533333 (at node 0)
	maximum = 0.016 (at node 6)
Accepted packet rate average = 0.0100833
	minimum = 0.00666667 (at node 3)
	maximum = 0.0173333 (at node 15)
Injected flit rate average = 0.0102083
	minimum = 0.00533333 (at node 0)
	maximum = 0.016 (at node 6)
Accepted flit rate average= 0.0100833
	minimum = 0.00666667 (at node 3)
	maximum = 0.0173333 (at node 15)
Injected packet length average = 1
Accepted packet length average = 1
Total in-flight flits = 4 (4 measured)
latency change    = 0.0162462
throughput change = 0.072314
Class 0:
Packet latency average = 21.0161
	minimum = 7
	maximum = 52
Network latency average = 21.0161
	minimum = 7
	maximum = 52
Slowest packet = 1830
Flit latency average = 21.0193
	minimum = 7
	maximum = 52
Slowest flit = 1830
Fragmentation average = 0
	minimum = 0
	maximum = 0
Injected packet rate average = 0.00984375
	minimum = 0.0065 (at node 8)
	maximum = 0.014 (at node 6)
Accepted packet rate average = 0.00971875
	minimum = 0.007 (at node 3)
	maximum = 0.014 (at node 15)
Injected flit rate average = 0.00984375
	minimum = 0.0065 (at node 8)
	maximum = 0.014 (at node 6)
Accepted flit rate average= 0.00971875
	minimum = 0.007 (at node 3)
	maximum = 0.014 (at node 15)
Injected packet length average = 1
Accepted packet length average = 1
Total in-flight flits = 5 (5 measured)
latency change    = 0.0025444
throughput change = 0.0375134
Class 0:
Packet latency average = 21.1444
	minimum = 7
	maximum = 52
Network latency average = 21.1444
	minimum = 7
	maximum = 52
Slowest packet = 1830
Flit latency average = 21.1467
	minimum = 7
	maximum = 52
Slowest flit = 1830
Fragmentation average = 0
	minimum = 0
	maximum = 0
Injected packet rate average = 0.009425
	minimum = 0.006 (at node 0)
	maximum = 0.0136 (at node 9)
Accepted packet rate average = 0.009375
	minimum = 0.0068 (at node 3)
	maximum = 0.012 (at node 15)
Injected flit rate average = 0.009425
	minimum = 0.006 (at node 0)
	maximum = 0.0136 (at node 9)
Accepted flit rate average= 0.009375
	minimum = 0.0068 (at node 3)
	maximum = 0.012 (at node 15)
Injected packet length average = 1
Accepted packet length average = 1
Total in-flight flits = 3 (3 measured)
latency change    = 0.00606572
throughput change = 0.0366667
Class 0:
Packet latency average = 20.9821
	minimum = 7
	maximum = 52
Network latency average = 20.9821
	minimum = 7
	maximum = 52
Slowest packet = 1830
Flit latency average = 20.9844
	minimum = 7
	maximum = 52
Slowest flit = 1830
Fragmentation average = 0
	minimum = 0
	maximum = 0
Injected packet rate average = 0.00935417
	minimum = 0.00533333 (at node 0)
	maximum = 0.0126667 (at node 9)
Accepted packet rate average = 0.00933333
	minimum = 0.007 (at node 10)
	maximum = 0.0113333 (at node 0)
Injected flit rate average = 0.00935417
	minimum = 0.00533333 (at node 0)
	maximum = 0.0126667 (at node 9)
Accepted flit rate average= 0.00933333
	minimum = 0.007 (at node 10)
	maximum = 0.0113333 (at node 0)
Injected packet length average = 1
Accepted packet length average = 1
Total in-flight flits = 2 (2 measured)
latency change    = 0.00773431
throughput change = 0.00446429
Draining all recorded packets ...
Draining remaining packets ...
Time taken is 4552 cycles
Class 0:
Packet latency average = 19.7283
	minimum = 7
	maximum = 37
Network latency average = 19.7283
	minimum = 7
	maximum = 37
Slowest packet = 2039
Flit latency average = 19.7283
	minimum = 7
	maximum = 37
Slowest flit = 2039
Fragmentation average = 0
	minimum = 0
	maximum = 0
Injected packet rate average = 0.011875
	minimum = 0.004 (at node 9)
	maximum = 0.022 (at node 7)
Accepted packet rate average = 0.0115
	minimum = 0.006 (at node 5)
	maximum = 0.018 (at node 9)
Injected flit rate average = 0.011875
	minimum = 0.004 (at node 9)
	maximum = 0.022 (at node 7)
Accepted flit rate average= 0.0115
	minimum = 0.006 (at node 5)
	maximum = 0.018 (at node 9)
Injected packet length average = 1
Accepted packet length average = 1
Total in-flight flits = 3 (0 measured)
latency change    = 1
throughput change = 1
Class 0:
Packet latency average = 21.1062
	minimum = 7
	maximum = 52
Network latency average = 21.1062
	minimum = 7
	maximum = 52
Slowest packet = 2075
Flit latency average = 21.1062
	minimum = 7
	maximum = 52
Slowest flit = 2075
Fragmentation average = 0
	minimum = 0
	maximum = 0
Injected packet rate average = 0.0101875
	minimum = 0.006 (at node 6)
	maximum = 0.014 (at node 7)
Accepted packet rate average = 0.01
	minimum = 0.007 (at node 5)
	maximum = 0.016 (at node 13)
Injected flit rate average = 0.0101875
	minimum = 0.006 (at node 6)
	maximum = 0.014 (at node 7)
Accepted flit rate average= 0.01
	minimum = 0.007 (at node 5)
	maximum = 0.016 (at node 13)
Injected packet length average = 1
Accepted packet length average = 1
Total in-flight flits = 3 (0 measured)
latency change    = 0.0652882
throughput change = 0.15
Class 0:
Packet latency average = 20.5517
	minimum = 7
	maximum = 47
Network latency average = 20.5517
	minimum = 7
	maximum = 47
Slowest packet = 2151
Flit latency average = 20.5517
	minimum = 7
	maximum = 47
Slowest flit = 2151
Fragmentation average = 0
	minimum = 0
	maximum = 0
Injected packet rate average = 0.007375
	minimum = 0.004 (at node 2)
	maximum = 0.014 (at node 13)
Accepted packet rate average = 0.00725
	minimum = 0.002 (at node 5)
	maximum = 0.014 (at node 1)
Injected flit rate average = 0.007375
	minimum = 0.004 (at node 2)
	maximum = 0.014 (at node 13)
Accepted flit rate average= 0.00725
	minimum = 0.002 (at node 5)
	maximum = 0.014 (at node 1)
Injected packet length average = 1
Accepted packet length average = 1
Total in-flight flits = 4 (0 measured)
latency change    = 0.026982
throughput change = 0.37931
Warmed up ...Time used is 1500 cycles
Class 0:
Packet latency average = 19.0833
	minimum = 7
	maximum = 37
Network latency average = 19.0833
	minimum = 7
	maximum = 37
Slowest packet = 2270
Flit latency average = 19.5658
	minimum = 7
	maximum = 47
Slowest flit = 2205
Fragmentation average = 0
	minimum = 0
	maximum = 0
Injected packet rate average = 0.009125
	minimum = 0.002 (at node 12)
	maximum = 0.018 (at node 6)
Accepted packet rate average = 0.0095
	minimum = 0.004 (at node 0)
	maximum = 0.02 (at node 5)
Injected flit rate average = 0.009125
	minimum = 0.002 (at node 12)
	maximum = 0.018 (at node 6)
Accepted flit rate average= 0.0095
	minimum = 0.004 (at node 0)
	maximum = 0.02 (at node 5)
Injected packet length average = 1
Accepted packet length average = 1
Total in-flight flits = 1 (1 measured)
latency change    = 0.0769462
throughput change = 0.236842
Class 0:
Packet latency average = 19.5369
	minimum = 7
	maximum = 57
Network latency average = 19.5369
	minimum = 7
	maximum = 57
Slowest packet = 2314
Flit latency average = 19.7647
	minimum = 7
	maximum = 57
Slowest flit = 2314
Fragmentation average = 0
	minimum = 0
	maximum = 0
Injected packet rate average = 0.0096875
	minimum = 0.006 (at node 3)
	maximum = 0.015 (at node 6)
Accepted packet rate average = 0.0095625
	minimum = 0.005 (at node 6)
	maximum = 0.02 (at node 14)
Injected flit rate average = 0.0096875
	minimum = 0.006 (at node 3)
	maximum = 0.015 (at node 6)
Accepted flit rate average= 0.0095625
	minimum = 0.005 (at node 6)
	maximum = 0.02 (at node 14)
Injected packet length average = 1
Accepted packet length average = 1
Total in-flight flits = 6 (6 measured)
latency change    = 0.0232165
throughput change = 0.00653595
Class 0:
Packet latency average = 19.7478
	minimum = 7
	maximum = 57
Network latency average = 19.7478
	minimum = 7
	maximum = 57
Slowest packet = 2314
Flit latency average = 19.8932
	minimum = 7
	maximum = 57
Slowest flit = 2314
Fragmentation average = 0
	minimum = 0
	maximum = 0
Injected packet rate average = 0.009625
	minimum = 0.00666667 (at node 2)
	maximum = 0.012 (at node 8)
Accepted packet rate average = 0.00975
	minimum = 0.00666667 (at node 9)
	maximum = 0.0173333 (at node 14)
Injected flit rate average = 0.009625
	minimum = 0.00666667 (at node 2)
	maximum = 0.012 (at node 8)
Accepted flit rate average= 0.00975
	minimum = 0.00666667 (at node 9)
	maximum = 0.0173333 (at node 14)
Injected packet length average = 1
Accepted packet length average = 1
Total in-flight flits = 1 (1 measured)
latency change    = 0.0106803
throughput change = 0.0192308
Class 0:
Packet latency average = 20.0557
	minimum = 7
	maximum = 57
Network latency average = 20.0557
	minimum = 7
	maximum = 57
Slowest packet = 2314
Flit latency average = 20.1618
	minimum = 7
	maximum = 57
Slowest flit = 2314
Fragmentation average = 0
	minimum = 0
	maximum = 0
Injected packet rate average = 0.00959375
	minimum = 0.0075 (at node 5)
	maximum = 0.011 (at node 4)
Accepted packet rate average = 0.00965625
	minimum = 0.006 (at node 9)
	maximum = 0.014 (at node 14)
Injected flit rate average = 0.00959375
	minimum = 0.0075 (at node 5)
	maximum = 0.011 (at node 4)
Accepted flit rate average= 0.00965625
	minimum = 0.006 (at node 9)
	maximum = 0.014 (at node 14)
Injected packet length average = 1
Accepted packet length average = 1
Total in-flight flits = 2 (2 measured)
latency change    = 0.0153528
throughput change = 0.00970874
Draining all recorded packets ...
Draining remaining packets ...
Time taken is 3541 cycles
Class 0:
Packet latency average = 21.1304
	minimum = 7
	maximum = 42
Network latency average = 21.1304
	minimum = 7
	maximum = 42
Slowest packet = 2548
Flit latency average = 21.1304
	minimum = 7
	maximum = 42
Slowest flit = 2548
Fragmentation average = 0
	minimum = 0
	maximum = 0
Injected packet rate average = 0.009
	minimum = 0.004 (at node 0)
	maximum = 0.016 (at node 15)
Accepted packet rate average = 0.008625
	minimum = 0.002 (at node 9)
	maximum = 0.022 (at node 5)
Injected flit rate average = 0.009
	minimum = 0.004 (at node 0)
	maximum = 0.016 (at node 15)
Accepted flit rate average= 0.008625
	minimum = 0.002 (at node 9)
	maximum = 0.022 (at node 5)
Injected packet length average = 1
Accepted packet length average = 1
Total in-flight flits = 3 (0 measured)
latency change    = 1
throughput change = 1
Class 0:
Packet latency average = 21.7688
	minimum = 7
	maximum = 57
Network latency average = 21.7688
	minimum = 7
	maximum = 57
Slowest packet = 2626
Flit latency average = 21.7688
	minimum = 7
	maximum = 57
Slowest flit = 2626
Fragmentation average = 0
	minimum = 0
	maximum = 0
Injected packet rate average = 0.010125
	minimum = 0.006 (at node 3)
	maximum = 0.016 (at node 9)
Accepted packet rate average = 0.01
	minimum = 0.004 (at node 7)
	maximum = 0.021 (at node 5)
Injected flit rate average = 0.010125
	minimum = 0.006 (at node 3)
	maximum = 0.016 (at node 9)
Accepted flit rate average= 0.01
	minimum = 0.004 (at node 7)
	maximum = 0.021 (at node 5)
Injected packet length average = 1
Accepted packet length average = 1
Total in-flight flits = 2 (0 measured)
latency change    = 0.0293225
throughput change = 0.1375
Class 0:
Packet latency average = 22.7297
	minimum = 7
	maximum = 52
Network latency average = 22.7297
	minimum = 7
	maximum = 52
Slowest packet = 2682
Flit latency average = 22.7297
	minimum = 7
	maximum = 52
Slowest flit = 2682
Fragmentation average = 0
	minimum = 0
	maximum = 0
Injected packet rate average = 0.009375
	minimum = 0.004 (at node 5)
	maximum = 0.016 (at node 15)
Accepted packet rate average = 0.00925
	minimum = 0.002 (at node 10)
	maximum = 0.014 (at node 9)
Injected flit rate average = 0.009375
	minimum = 0.004 (at node 5)
	maximum = 0.016 (at node 15)
Accepted flit rate average= 0.00925
	minimum = 0.002 (at node 10)
	maximum = 0.014 (at node 9)
Injected packet length average = 1
Accepted packet length average = 1
Total in-flight flits = 3 (0 measured)
latency change    = 0.0422785
throughput change = 0.0810811
Warmed up ...Time used is 1500 cycles
Class 0:
Packet latency average = 20.4074
	minimum = 7
	maximum = 47
Network latency average = 20.4074
	minimum = 7
	maximum = 47
Slowest packet = 2800
Flit latency average = 20.4643
	minimum = 7
	maximum = 47
Slowest flit = 2800
Fragmentation average = 0
	minimum = 0
	maximum = 0
Injected packet rate average = 0.010375
	minimum = 0.004 (at node 12)
	maximum = 0.022 (at node 10)
Accepted packet rate average = 0.0105
	minimum = 0.004 (at node 14)
	maximum = 0.018 (at node 10)
Injected flit rate average = 0.010375
	minimum = 0.004 (at node 12)
	maximum = 0.022 (at node 10)
Accepted flit rate average= 0.0105
	minimum = 0.004 (at node 14)
	maximum = 0.018 (at node 10)
Injected packet length average = 1
Accepted packet length average = 1
Total in-flight flits = 2 (2 measured)
latency change    = 0.113798
throughput change = 0.119048
Class 0:
Packet latency average = 20.6938
	minimum = 7
	maximum = 52
Network latency average = 20.6938
	minimum = 7
	maximum = 52
Slowest packet = 2863
Flit latency average = 20.7178
	minimum = 7
	maximum = 52
Slowest flit = 2863
Fragmentation average = 0
	minimum = 0
	maximum = 0
Injected packet rate average = 0.0100625
	minimum = 0.005 (at node 8)
	maximum = 0.016 (at node 14)
Accepted packet rate average = 0.0101875
	minimum = 0.006 (at node 0)
	maximum = 0.015 (at node 11)
Injected flit rate average = 0.0100625
	minimum = 0.005 (at node 8)
	maximum = 0.016 (at node 14)
Accepted flit rate average= 0.0101875
	minimum = 0.006 (at node 0)
	maximum = 0.015 (at node 11)
Injected packet length average = 1
Accepted packet length average = 1
Total in-flight flits = 1 (1 measured)
latency change    = 0.0138372
throughput change = 0.0306748
Class 0:
Packet latency average = 20.8245
	minimum = 7
	maximum = 52
Network latency average = 20.8245
	minimum = 7
	maximum = 52
Slowest packet = 2863
Flit latency average = 20.8387
	minimum = 7
	maximum = 52
Slowest flit = 2863
Fragmentation average = 0
	minimum = 0
	maximum = 0
Injected packet rate average = 0.0102917
	minimum = 0.006 (at node 1)
	maximum = 0.0146667 (at node 7)
Accepted packet rate average = 0.0103333
	minimum = 0.00733333 (at node 1)
	maximum = 0.0133333 (at node 9)
Injected flit rate average = 0.0102917
	minimum = 0.006 (at node 1)
	maximum = 0.0146667 (at node 7)
Accepted flit rate average= 0.0103333
	minimum = 0.00733333 (at node 1)
	maximum = 0.0133333 (at node 9)
Injected packet length average = 1
Accepted packet length average = 1
Total in-flight flits = 2 (2 measured)
latency change    = 0.00627818
throughput change = 0.0141129
Class 0:
Packet latency average = 20.7402
	minimum = 7
	maximum = 52
Network latency average = 20.7402
	minimum = 7
	maximum = 52
Slowest packet = 2863
Flit latency average = 20.7515
	minimum = 7
	maximum = 52
Slowest flit = 2863
Fragmentation average = 0
	minimum = 0
	maximum = 0
Injected packet rate average = 0.0104063
	minimum = 0.007 (at node 8)
	maximum = 0.0145 (at node 7)
Accepted packet rate average = 0.0104375
	minimum = 0.008 (at node 1)
	maximum = 0.014 (at node 13)
Injected flit rate average = 0.0104063
	minimum = 0.007 (at node 8)
	maximum = 0.0145 (at node 7)
Accepted flit rate average= 0.0104375
	minimum = 0.008 (at node 1)
	maximum = 0.014 (at node 13)
Injected packet length average = 1
Accepted packet length average = 1
Total in-flight flits = 2 (2 measured)
latency change    = 0.00406499
throughput change = 0.00998004
Draining all recorded packets ...
Draining remaining packets ...
Time taken is 3520 cycles
Class 0:
Packet latency average = 21.0789
	minimum = 7
	maximum = 47
Network latency average = 21.0789
	minimum = 7
	maximum = 47
Slowest packet = 3120
Flit latency average = 21.0789
	minimum = 7
	maximum = 47
Slowest flit = 3120
Fragmentation average = 0
	minimum = 0
	maximum = 0
Injected packet rate average = 0.010125
	minimum = 0.002 (at node 0)
	maximum = 0.02 (at node 4)
Accepted packet rate average = 0.0095
	minimum = 0.004 (at node 2)
	maximum = 0.018 (at node 4)
Injected flit rate average = 0.010125
	minimum = 0.002 (at node 0)
	maximum = 0.02 (at node 4)
Accepted flit rate average= 0.0095
	minimum = 0.004 (at node 2)
	maximum = 0.018 (at node 4)
Injected packet length average = 1
Accepted packet length average = 1
Total in-flight flits = 5 (0 measured)
latency change    = 1
throughput change = 1
Class 0:
Packet latency average = 20.179
	minimum = 7
	maximum = 47
Network latency average = 20.179
	minimum = 7
	maximum = 47
Slowest packet = 3120
Flit latency average = 20.179
	minimum = 7
	maximum = 47
Slowest flit = 3120
Fragmentation average = 0
	minimum = 0
	maximum = 0
Injected packet rate average = 0.01025
	minimum = 0.001 (at node 0)
	maximum = 0.019 (at node 4)
Accepted packet rate average = 0.010125
	minimum = 0.005 (at node 7)
	maximum = 0.014 (at node 1)
Injected flit rate average = 0.01025
	minimum = 0.001 (at node 0)
	maximum = 0.019 (at node 4)
Accepted flit rate average= 0.010125
	minimum = 0.005 (at node 7)
	maximum = 0.014 (at node 1)
Injected packet length average = 1
Accepted packet length average = 1
Total in-flight flits = 2 (0 measured)
latency change    = 0.0445976
throughput change = 0.0617284
Class 0:
Packet latency average = 19.9412
	minimum = 7
	maximum = 57
Network latency average = 19.9412
	minimum = 7
	maximum = 57
Slowest packet = 3302
Flit latency average = 19.9412
	minimum = 7
	maximum = 57
Slowest flit = 3302
Fragmentation average = 0
	minimum = 0
	maximum = 0
Injected packet rate average = 0.009
	minimum = 0.002 (at node 4)
	maximum = 0.016 (at node 13)
Accepted packet rate average = 0.0085
	minimum = 0 (at node 5)
	maximum = 0.014 (at node 4)
Injected flit rate average = 0.009
	minimum = 0.002 (at node 4)
	maximum = 0.016 (at node 13)
Accepted flit rate average= 0.0085
	minimum = 0 (at node 5)
	maximum = 0.014 (at node 4)
Injected packet length average = 1
Accepted packet length average = 1
Total in-flight flits = 6 (0 measured)
latency change    = 0.0119269
throughput change = 0.191176
Warmed up ...Time used is 1500 cycles
Class 0:
Packet latency average = 19.6543
	minimum = 7
	maximum = 52
Network latency average = 19.6543
	minimum = 7
	maximum = 52
Slowest packet = 3344
Flit latency average = 20.2184
	minimum = 7
	maximum = 57
Slowest flit = 3330
Fragmentation average = 0
	minimum = 0
	maximum = 0
Injected packet rate average = 0.010875
	minimum = 0.004 (at node 2)
	maximum = 0.024 (at node 5)
Accepted packet rate average = 0.010875
	minimum = 0.002 (at node 13)
	maximum = 0.018 (at node 14)
Injected flit rate average = 0.010875
	minimum = 0.004 (at node 2)
	maximum = 0.024 (at node 5)
Accepted flit rate average= 0.010875
	minimum = 0.002 (at node 13)
	maximum = 0.018 (at node 14)
Injected packet length average = 1
Accepted packet length average = 1
Total in-flight flits = 6 (6 measured)
latency change    = 0.014595
throughput change = 0.218391
Class 0:
Packet latency average = 20.7076
	minimum = 7
	maximum = 52
Network latency average = 20.7076
	minimum = 7
	maximum = 52
Slowest packet = 3344
Flit latency average = 20.9492
	minimum = 7
	maximum = 57
Slowest flit = 3330
Fragmentation average = 0
	minimum = 0
	maximum = 0
Injected packet rate average = 0.0109375
	minimum = 0.007 (at node 0)
	maximum = 0.019 (at node 13)
Accepted packet rate average = 0.0110625
	minimum = 0.006 (at node 1)
	maximum = 0.018 (at node 5)
Injected flit rate average = 0.0109375
	minimum = 0.007 (at node 0)
	maximum = 0.019 (at node 13)
Accepted flit rate average= 0.0110625
	minimum = 0.006 (at node 1)
	maximum = 0.018 (at node 5)
Injected packet length average = 1
Accepted packet length average = 1
Total in-flight flits = 4 (4 measured)
latency change    = 0.0508645
throughput change = 0.0169492
Class 0:
Packet latency average = 20.5181
	minimum = 7
	maximum = 52
Network latency average = 20.5181
	minimum = 7
	maximum = 52
Slowest packet = 3344
Flit latency average = 20.6902
	minimum = 7
	maximum = 57
Slowest flit = 3330
Fragmentation average = 0
	minimum = 0
	maximum = 0
Injected packet rate average = 0.0105417
	minimum = 0.00733333 (at node 7)
	maximum = 0.014 (at node 13)
Accepted packet rate average = 0.010625
	minimum = 0.00533333 (at node 10)
	maximum = 0.0153333 (at node 5)
Injected flit rate average = 0.0105417
	minimum = 0.00733333 (at node 7)
	maximum = 0.014 (at node 13)
Accepted flit rate average= 0.010625
	minimum = 0.00533333 (at node 10)
	maximum = 0.0153333 (at node 5)
Injected packet length average = 1
Accepted packet length average = 1
Total in-flight flits = 4 (4 measured)
latency change    = 0.00923722
throughput change = 0.0411765
Class 0:
Packet latency average = 20.2086
	minimum = 7
	maximum = 57
Network latency average = 20.2086
	minimum = 7
	maximum = 57
Slowest packet = 3594
Flit latency average = 20.3464
	minimum = 7
	maximum = 57
Slowest flit = 3330
Fragmentation average = 0
	minimum = 0
	maximum = 0
Injected packet rate average = 0.01025
	minimum = 0.0065 (at node 7)
	maximum = 0.013 (at node 1)
Accepted packet rate average = 0.010375
	minimum = 0.0055 (at node 10)
	maximum = 0.0145 (at node 5)
Injected flit rate average = 0.01025
	minimum = 0.0065 (at node 7)
	maximum = 0.013 (at node 1)
Accepted flit rate average= 0.010375
	minimum = 0.0055 (at node 10)
	maximum = 0.0145 (at node 5)
Injected packet length average = 1
Accepted packet length average = 1
Total in-flight flits = 2 (2 measured)
latency change    = 0.0153144
throughput change = 0.0240964
Class 0:
Packet latency average = 20.3656
	minimum = 7
	maximum = 57
Network latency average = 20.3656
	minimum = 7
	maximum = 57
Slowest packet = 3594
Flit latency average = 20.4726
	minimum = 7
	maximum = 57
Slowest flit = 3330
Fragmentation average = 0
	minimum = 0
	maximum = 0
Injected packet rate average = 0.0104
	minimum = 0.008 (at node 14)
	maximum = 0.0124 (at node 13)
Accepted packet rate average = 0.010475
	minimum = 0.008 (at node 7)
	maximum = 0.0132 (at node 2)
Injected flit rate average = 0.0104
	minimum = 0.008 (at node 14)
	maximum = 0.0124 (at node 13)
Accepted flit rate average= 0.010475
	minimum = 0.008 (at node 7)
	maximum = 0.0132 (at node 2)
Injected packet length average = 1
Accepted packet length average = 1
Total in-flight flits = 3 (3 measured)
latency change    = 0.00771047
throughput change = 0.00954654
Draining all recorded packets ...
Draining remaining packets ...
Time taken is 4071 cycles
Class 0:
Packet latency average = 20.9189
	minimum = 7
	maximum = 52
Network latency average = 20.9189
	minimum = 7
	maximum = 52
Slowest packet = 3751
Flit latency average = 20.9189
	minimum = 7
	maximum = 52
Slowest flit = 3751
Fragmentation average = 0
	minimum = 0
	maximum = 0
Injected packet rate average = 0.009875
	minimum = 0.004 (at node 9)
	maximum = 0.016 (at node 1)
Accepted packet rate average = 0.00925
	minimum = 0 (at node 12)
	maximum = 0.016 (at node 8)
Injected flit rate average = 0.009875
	minimum = 0.004 (at node 9)
	maximum = 0.016 (at node 1)
Accepted flit rate average= 0.00925
	minimum = 0 (at node 12)
	maximum = 0.016 (at node 8)
Injected packet length average = 1
Accepted packet length average = 1
Total in-flight flits = 5 (0 measured)
latency change    = 1
throughput change = 1
Class 0:
Packet latency average = 22.0395
	minimum = 7
	maximum = 52
Network latency average = 22.0395
	minimum = 7
	maximum = 52
Slowest packet = 3751
Flit latency average = 22.0395
	minimum = 7
	maximum = 52
Slowest flit = 3751
Fragmentation average = 0
	minimum = 0
	maximum = 0
Injected packet rate average = 0.009625
	minimum = 0.003 (at node 9)
	maximum = 0.016 (at node 1)
Accepted packet rate average = 0.0095
	minimum = 0.005 (at node 12)
	maximum = 0.015 (at node 7)
Injected flit rate average = 0.009625
	minimum = 0.003 (at node 9)
	maximum = 0.016 (at node 1)
Accepted flit rate average= 0.0095
	minimum = 0.005 (at node 12)
	maximum = 0.015 (at node 7)
Injected packet length average = 1
Accepted packet length average = 1
Total in-flight flits = 2 (0 measured)
latency change    = 0.0508431
throughput change = 0.0263158
Class 0:
Packet latency average = 20.0986
	minimum = 7
	maximum = 47
Network latency average = 20.0986
	minimum = 7
	maximum = 47
Slowest packet = 3909
Flit latency average = 20.0986
	minimum = 7
	maximum = 47
Slowest flit = 3909
Fragmentation average = 0
	minimum = 0
	maximum = 0
Injected packet rate average = 0.00925
	minimum = 0.004 (at node 8)
	maximum = 0.018 (at node 0)
Accepted packet rate average = 0.008875
	minimum = 0.002 (at node 8)
	maximum = 0.018 (at node 0)
Injected flit rate average = 0.00925
	minimum = 0.004 (at node 8)
	maximum = 0.018 (at node 0)
Accepted flit rate average= 0.008875
	minimum = 0.002 (at node 8)
	maximum = 0.018 (at node 0)
Injected packet length average = 1
Accepted packet length average = 1
Total in-flight flits = 5 (0 measured)
latency change    = 0.0965681
throughput change = 0.0704225
Warmed up ...Time used is 1500 cycles
Class 0:
Packet latency average = 22.2879
	minimum = 7
	maximum = 47
Network latency average = 22.2879
	minimum = 7
	maximum = 47
Slowest packet = 4004
Flit latency average = 22.831
	minimum = 7
	maximum = 57
Slowest flit = 3976
Fragmentation average = 0
	minimum = 0
	maximum = 0
Injected packet rate average = 0.0085
	minimum = 0.002 (at node 4)
	maximum = 0.018 (at node 10)
Accepted packet rate average = 0.008875
	minimum = 0.002 (at node 9)
	maximum = 0.018 (at node 4)
Injected flit rate average = 0.0085
	minimum = 0.002 (at node 4)
	maximum = 0.018 (at node 10)
Accepted flit rate average= 0.008875
	minimum = 0.002 (at node 9)
	maximum = 0.018 (at node 4)
Injected packet length average = 1
Accepted packet length average = 1
Total in-flight flits = 2 (2 measured)
latency change    = 0.0982277
throughput change = 0
Class 0:
Packet latency average = 20.554
	minimum = 7
	maximum = 47
Network latency average = 20.554
	minimum = 7
	maximum = 47
Slowest packet = 4004
Flit latency average = 20.8819
	minimum = 7
	maximum = 57
Slowest flit = 3976
Fragmentation average = 0
	minimum = 0
	maximum = 0
Injected packet rate average = 0.008875
	minimum = 0.003 (at node 0)
	maximum = 0.018 (at node 10)
Accepted packet rate average = 0.009
	minimum = 0.006 (at node 6)
	maximum = 0.012 (at node 4)
Injected flit rate average = 0.008875
	minimum = 0.003 (at node 0)
	maximum = 0.018 (at node 10)
Accepted flit rate average= 0.009
	minimum = 0.006 (at node 6)
	maximum = 0.012 (at node 4)
Injected packet length average = 1
Accepted packet length average = 1
Total in-flight flits = 3 (3 measured)
latency change    = 0.0843595
throughput change = 0.0138889
Class 0:
Packet latency average = 20.3559
	minimum = 7
	maximum = 48
Network latency average = 20.3559
	minimum = 7
	maximum = 48
Slowest packet = 4160
Flit latency average = 20.556
	minimum = 7
	maximum = 57
Slowest flit = 3976
Fragmentation average = 0
	minimum = 0
	maximum = 0
Injected packet rate average = 0.01
	minimum = 0.00666667 (at node 0)
	maximum = 0.016 (at node 10)
Accepted packet rate average = 0.0100417
	minimum = 0.006 (at node 9)
	maximum = 0.0126667 (at node 15)
Injected flit rate average = 0.01
	minimum = 0.00666667 (at node 0)
	maximum = 0.016 (at node 10)
Accepted flit rate average= 0.0100417
	minimum = 0.006 (at node 9)
	maximum = 0.0126667 (at node 15)
Injected packet length average = 1
Accepted packet length average = 1
Total in-flight flits = 4 (4 measured)
latency change    = 0.0097281
throughput change = 0.103734
Class 0:
Packet latency average = 20.4062
	minimum = 7
	maximum = 52
Network latency average = 20.4062
	minimum = 7
	maximum = 52
Slowest packet = 4219
Flit latency average = 20.5515
	minimum = 7
	maximum = 57
Slowest flit = 3976
Fragmentation average = 0
	minimum = 0
	maximum = 0
Injected packet rate average = 0.01025
	minimum = 0.0065 (at node 0)
	maximum = 0.0165 (at node 7)
Accepted packet rate average = 0.0103125
	minimum = 0.0075 (at node 9)
	maximum = 0.0135 (at node 4)
Injected flit rate average = 0.01025
	minimum = 0.0065 (at node 0)
	maximum = 0.0165 (at node 7)
Accepted flit rate average= 0.0103125
	minimum = 0.0075 (at node 9)
	maximum = 0.0135 (at node 4)
Injected packet length average = 1
Accepted packet length average = 1
Total in-flight flits = 3 (3 measured)
latency change    = 0.0024611
throughput change = 0.0262626
Class 0:
Packet latency average = 20.131
	minimum = 7
	maximum = 52
Network latency average = 20.131
	minimum = 7
	maximum = 52
Slowest packet = 4219
Flit latency average = 20.2471
	minimum = 7
	maximum = 57
Slowest flit = 3976
Fragmentation average = 0
	minimum = 0
	maximum = 0
Injected packet rate average = 0.01055
	minimum = 0.0068 (at node 0)
	maximum = 0.0156 (at node 7)
Accepted packet rate average = 0.010625
	minimum = 0.0088 (at node 9)
	maximum = 0.014 (at node 4)
Injected flit rate average = 0.01055
	minimum = 0.0068 (at node 0)
	maximum = 0.0156 (at node 7)
Accepted flit rate average= 0.010625
	minimum = 0.0088 (at node 9)
	maximum = 0.014 (at node 4)
Injected packet length average = 1
Accepted packet length average = 1
Total in-flight flits = 2 (2 measured)
latency change    = 0.0136706
throughput change = 0.0294118
Class 0:
Packet latency average = 20.2495
	minimum = 7
	maximum = 57
Network latency average = 20.2495
	minimum = 7
	maximum = 57
Slowest packet = 4441
Flit latency average = 20.3466
	minimum = 7
	maximum = 57
Slowest flit = 3976
Fragmentation average = 0
	minimum = 0
	maximum = 0
Injected packet rate average = 0.0104583
	minimum = 0.00633333 (at node 0)
	maximum = 0.0153333 (at node 7)
Accepted packet rate average = 0.0104583
	minimum = 0.00866667 (at node 10)
	maximum = 0.014 (at node 4)
Injected flit rate average = 0.0104583
	minimum = 0.00633333 (at node 0)
	maximum = 0.0153333 (at node 7)
Accepted flit rate average= 0.0104583
	minimum = 0.00866667 (at node 10)
	maximum = 0.014 (at node 4)
Injected packet length average = 1
Accepted packet length average = 1
Total in-flight flits = 5 (5 measured)
latency change    = 0.0058542
throughput change = 0.0159363
Draining all recorded packets ...
Draining remaining packets ...
Time taken is 4551 cycles
Class 0:
Packet latency average = 21.7397
	minimum = 7
	maximum = 37
Network latency average = 21.7397
	minimum = 7
	maximum = 37
Slowest packet = 4492
Flit latency average = 21.7397
	minimum = 7
	maximum = 37
Slowest flit = 4492
Fragmentation average = 0
	minimum = 0
	maximum = 0
Injected packet rate average = 0.009375
	minimum = 0.002 (at node 0)
	maximum = 0.016 (at node 10)
Accepted packet rate average = 0.009125
	minimum = 0.002 (at node 7)
	maximum = 0.016 (at node 1)
Injected flit rate average = 0.009375
	minimum = 0.002 (at node 0)
	maximum = 0.016 (at node 10)
Accepted flit rate average= 0.009125
	minimum = 0.002 (at node 7)
	maximum = 0.016 (at node 1)
Injected packet length average = 1
Accepted packet length average = 1
Total in-flight flits = 2 (0 measured)
latency change    = 1
throughput change = 1
Class 0:
Packet latency average = 20.5563
	minimum = 7
	maximum = 42
Network latency average = 20.5563
	minimum = 7
	maximum = 42
Slowest packet = 4586
Flit latency average = 20.5563
	minimum = 7
	maximum = 42
Slowest flit = 4586
Fragmentation average = 0
	minimum = 0
	maximum = 0
Injected packet rate average = 0.0095
	minimum = 0.003 (at node 5)
	maximum = 0.016 (at node 9)
Accepted packet rate average = 0.0094375
	minimum = 0.005 (at node 10)
	maximum = 0.016 (at node 1)
Injected flit rate average = 0.0095
	minimum = 0.003 (at node 5)
	maximum = 0.016 (at node 9)
Accepted flit rate average= 0.0094375
	minimum = 0.005 (at node 10)
	maximum = 0.016 (at node 1)
Injected packet length average = 1
Accepted packet length average = 1
Total in-flight flits = 1 (0 measured)
latency change    = 0.0575704
throughput change = 0.0331126
Class 0:
Packet latency average = 22.092
	minimum = 7
	maximum = 52
Network latency average = 22.092
	minimum = 7
	maximum = 52
Slowest packet = 4671
Flit latency average = 22.092
	minimum = 7
	maximum = 52
Slowest flit = 4671
Fragmentation average = 0
	minimum = 0
	maximum = 0
Injected packet rate average = 0.01125
	minimum = 0.004 (at node 4)
	maximum = 0.02 (at node 11)
Accepted packet rate average = 0.010875
	minimum = 0.002 (at node 13)
	maximum = 0.018 (at node 7)
Injected flit rate average = 0.01125
	minimum = 0.004 (at node 4)
	maximum = 0.02 (at node 11)
Accepted flit rate average= 0.010875
	minimum = 0.002 (at node 13)
	maximum = 0.018 (at node 7)
Injected packet length average = 1
Accepted packet length average = 1
Total in-flight flits = 4 (0 measured)
latency change    = 0.0695123
throughput change = 0.132184
Warmed up ...Time used is 1500 cycles
Class 0:
Packet latency average = 21.6543
	minimum = 7
	maximum = 48
Network latency average = 21.6543
	minimum = 7
	maximum = 48
Slowest packet = 4728
Flit latency average = 21.7294
	minimum = 7
	maximum = 48
Slowest flit = 4728
Fragmentation average = 0
	minimum = 0
	maximum = 0
Injected packet rate average = 0.011375
	minimum = 0.004 (at node 6)
	maximum = 0.02 (at node 3)
Accepted packet rate average = 0.010625
	minimum = 0.002 (at node 1)
	maximum = 0.02 (at node 7)
Injected flit rate average = 0.011375
	minimum = 0.004 (at node 6)
	maximum = 0.02 (at node 3)
Accepted flit rate average= 0.010625
	minimum = 0.002 (at node 1)
	maximum = 0.02 (at node 7)
Injected packet length average = 1
Accepted packet length average = 1
Total in-flight flits = 10 (10 measured)
latency change    = 0.02021
throughput change = 0.0235294
Class 0:
Packet latency average = 21.9231
	minimum = 7
	maximum = 59
Network latency average = 21.9231
	minimum = 7
	maximum = 59
Slowest packet = 4810
Flit latency average = 21.9497
	minimum = 7
	maximum = 59
Slowest flit = 4810
Fragmentation average = 0
	minimum = 0
	maximum = 0
Injected packet rate average = 0.0124375
	minimum = 0.009 (at node 4)
	maximum = 0.017 (at node 0)
Accepted packet rate average = 0.0124375
	minimum = 0.003 (at node 1)
	maximum = 0.02 (at node 7)
Injected flit rate average = 0.0124375
	minimum = 0.009 (at node 4)
	maximum = 0.017 (at node 0)
Accepted flit rate average= 0.0124375
	minimum = 0.003 (at node 1)
	maximum = 0.02 (at node 7)
Injected packet length average = 1
Accepted packet length average = 1
Total in-flight flits = 4 (4 measured)
latency change    = 0.012259
throughput change = 0.145729
Class 0:
Packet latency average = 21.1971
	minimum = 7
	maximum = 59
Network latency average = 21.1971
	minimum = 7
	maximum = 59
Slowest packet = 4810
Flit latency average = 21.2261
	minimum = 7
	maximum = 59
Slowest flit = 4810
Fragmentation average = 0
	minimum = 0
	maximum = 0
Injected packet rate average = 0.01175
	minimum = 0.00866667 (at node 5)
	maximum = 0.0146667 (at node 8)
Accepted packet rate average = 0.0117917
	minimum = 0.006 (at node 1)
	maximum = 0.0153333 (at node 7)
Injected flit rate average = 0.01175
	minimum = 0.00866667 (at node 5)
	maximum = 0.0146667 (at node 8)
Accepted flit rate average= 0.0117917
	minimum = 0.006 (at node 1)
	maximum = 0.0153333 (at node 7)
Injected packet length average = 1
Accepted packet length average = 1
Total in-flight flits = 3 (3 measured)
latency change    = 0.0342473
throughput change = 0.0547703
Class 0:
Packet latency average = 21.1935
	minimum = 7
	maximum = 59
Network latency average = 21.1935
	minimum = 7
	maximum = 59
Slowest packet = 4810
Flit latency average = 21.2156
	minimum = 7
	maximum = 59
Slowest flit = 4810
Fragmentation average = 0
	minimum = 0
	maximum = 0
Injected packet rate average = 0.0115625
	minimum = 0.0085 (at node 5)
	maximum = 0.014 (at node 11)
Accepted packet rate average = 0.0115937
	minimum = 0.0065 (at node 1)
	maximum = 0.014 (at node 2)
Injected flit rate average = 0.0115625
	minimum = 0.0085 (at node 5)
	maximum = 0.014 (at node 11)
Accepted flit rate average= 0.0115937
	minimum = 0.0065 (at node 1)
	maximum = 0.014 (at node 2)
Injected packet length average = 1
Accepted packet length average = 1
Total in-flight flits = 3 (3 measured)
latency change    = 0.000173267
throughput change = 0.017071
Class 0:
Packet latency average = 21.0022
	minimum = 7
	maximum = 59
Network latency average = 21.0022
	minimum = 7
	maximum = 59
Slowest packet = 4810
Flit latency average = 21.0217
	minimum = 7
	maximum = 59
Slowest flit = 4810
Fragmentation average = 0
	minimum = 0
	maximum = 0
Injected packet rate average = 0.011475
	minimum = 0.0092 (at node 5)
	maximum = 0.0132 (at node 3)
Accepted packet rate average = 0.011525
	minimum = 0.0068 (at node 1)
	maximum = 0.0148 (at node 13)
Injected flit rate average = 0.011475
	minimum = 0.0092 (at node 5)
	maximum = 0.0132 (at node 3)
Accepted flit rate average= 0.011525
	minimum = 0.0068 (at node 1)
	maximum = 0.0148 (at node 13)
Injected packet length average = 1
Accepted packet length average = 1
Total in-flight flits = 2 (2 measured)
latency change    = 0.00910726
throughput change = 0.00596529
Class 0:
Packet latency average = 20.97
	minimum = 7
	maximum = 59
Network latency average = 20.97
	minimum = 7
	maximum = 59
Slowest packet = 4810
Flit latency average = 20.987
	minimum = 7
	maximum = 59
Slowest flit = 4810
Fragmentation average = 0
	minimum = 0
	maximum = 0
Injected packet rate average = 0.0111667
	minimum = 0.008 (at node 5)
	maximum = 0.0133333 (at node 13)
Accepted packet rate average = 0.0111875
	minimum = 0.00733333 (at node 1)
	maximum = 0.0153333 (at node 13)
Injected flit rate average = 0.0111667
	minimum = 0.008 (at node 5)
	maximum = 0.0133333 (at node 13)
Accepted flit rate average= 0.0111875
	minimum = 0.00733333 (at node 1)
	maximum = 0.0153333 (at node 13)
Injected packet length average = 1
Accepted packet length average = 1
Total in-flight flits = 3 (3 measured)
latency change    = 0.00153586
throughput change = 0.0301676
Draining all recorded packets ...
Draining remaining packets ...
Time taken is 4571 cycles
Class 0:
Packet latency average = 20.4595
	minimum = 7
	maximum = 57
Network latency average = 20.4595
	minimum = 7
	maximum = 57
Slowest packet = 5274
Flit latency average = 20.4595
	minimum = 7
	maximum = 57
Slowest flit = 5274
Fragmentation average = 0
	minimum = 0
	maximum = 0
Injected packet rate average = 0.009375
	minimum = 0 (at node 15)
	maximum = 0.022 (at node 6)
Accepted packet rate average = 0.00925
	minimum = 0.002 (at node 2)
	maximum = 0.02 (at node 13)
Injected flit rate average = 0.009375
	minimum = 0 (at node 15)
	maximum = 0.022 (at node 6)
Accepted flit rate average= 0.00925
	minimum = 0.002 (at node 2)
	maximum = 0.02 (at node 13)
Injected packet length average = 1
Accepted packet length average = 1
Total in-flight flits = 1 (0 measured)
latency change    = 1
throughput change = 1
Class 0:
Packet latency average = 20.9819
	minimum = 7
	maximum = 57
Network latency average = 20.9819
	minimum = 7
	maximum = 57
Slowest packet = 5274
Flit latency average = 20.9819
	minimum = 7
	maximum = 57
Slowest flit = 5274
Fragmentation average = 0
	minimum = 0
	maximum = 0
Injected packet rate average = 0.0106875
	minimum = 0.005 (at node 15)
	maximum = 0.015 (at node 1)
Accepted packet rate average = 0.010375
	minimum = 0.005 (at node 2)
	maximum = 0.018 (at node 13)
Injected flit rate average = 0.0106875
	minimum = 0.005 (at node 15)
	maximum = 0.015 (at node 1)
Accepted flit rate average= 0.010375
	minimum = 0.005 (at node 2)
	maximum = 0.018 (at node 13)
Injected packet length average = 1
Accepted packet length average = 1
Total in-flight flits = 5 (0 measured)
latency change    = 0.0249009
throughput change = 0.108434
Class 0:
Packet latency average = 20.65
	minimum = 7
	maximum = 57
Network latency average = 20.65
	minimum = 7
	maximum = 57
Slowest packet = 5454
Flit latency average = 20.65
	minimum = 7
	maximum = 57
Slowest flit = 5454
Fragmentation average = 0
	minimum = 0
	maximum = 0
Injected packet rate average = 0.009375
	minimum = 0.002 (at node 8)
	maximum = 0.024 (at node 11)
Accepted packet rate average = 0.01
	minimum = 0.004 (at node 12)
	maximum = 0.014 (at node 2)
Injected flit rate average = 0.009375
	minimum = 0.002 (at node 8)
	maximum = 0.024 (at node 11)
Accepted flit rate average= 0.01
	minimum = 0.004 (at node 12)
	maximum = 0.014 (at node 2)
Injected packet length average = 1
Accepted packet length average = 1
Total in-flight flits = 0 (0 measured)
latency change    = 0.016074
throughput change = 0.0375
Warmed up ...Time used is 1500 cycles
Class 0:
Packet latency average = 18.8372
	minimum = 7
	maximum = 47
Network latency average = 18.8372
	minimum = 7
	maximum = 47
Slowest packet = 5552
Flit latency average = 18.8372
	minimum = 7
	maximum = 47
Slowest flit = 5552
Fragmentation average = 0
	minimum = 0
	maximum = 0
Injected packet rate average = 0.0115
	minimum = 0.004 (at node 10)
	maximum = 0.018 (at node 7)
Accepted packet rate average = 0.01075
	minimum = 0.004 (at node 10)
	maximum = 0.024 (at node 12)
Injected flit rate average = 0.0115
	minimum = 0.004 (at node 10)
	maximum = 0.018 (at node 7)
Accepted flit rate average= 0.01075
	minimum = 0.004 (at node 10)
	maximum = 0.024 (at node 12)
Injected packet length average = 1
Accepted packet length average = 1
Total in-flight flits = 6 (6 measured)
latency change    = 0.0962346
throughput change = 0.0697674
Class 0:
Packet latency average = 19.7844
	minimum = 7
	maximum = 52
Network latency average = 19.7844
	minimum = 7
	maximum = 52
Slowest packet = 5601
Flit latency average = 19.7844
	minimum = 7
	maximum = 52
Slowest flit = 5601
Fragmentation average = 0
	minimum = 0
	maximum = 0
Injected packet rate average = 0.0105
	minimum = 0.005 (at node 10)
	maximum = 0.015 (at node 3)
Accepted packet rate average = 0.0104375
	minimum = 0.004 (at node 14)
	maximum = 0.017 (at node 12)
Injected flit rate average = 0.0105
	minimum = 0.005 (at node 10)
	maximum = 0.015 (at node 3)
Accepted flit rate average= 0.0104375
	minimum = 0.004 (at node 14)
	maximum = 0.017 (at node 12)
Injected packet length average = 1
Accepted packet length average = 1
Total in-flight flits = 1 (1 measured)
latency change    = 0.0478771
throughput change = 0.0299401
Class 0:
Packet latency average = 20.0085
	minimum = 7
	maximum = 52
Network latency average = 20.0085
	minimum = 7
	maximum = 52
Slowest packet = 5601
Flit latency average = 20.0085
	minimum = 7
	maximum = 52
Slowest flit = 5601
Fragmentation average = 0
	minimum = 0
	maximum = 0
Injected packet rate average = 0.01
	minimum = 0.006 (at node 15)
	maximum = 0.0153333 (at node 7)
Accepted packet rate average = 0.00983333
	minimum = 0.00533333 (at node 14)
	maximum = 0.012 (at node 2)
Injected flit rate average = 0.01
	minimum = 0.006 (at node 15)
	maximum = 0.0153333 (at node 7)
Accepted flit rate average= 0.00983333
	minimum = 0.00533333 (at node 14)
	maximum = 0.012 (at node 2)
Injected packet length average = 1
Accepted packet length average = 1
Total in-flight flits = 4 (4 measured)
latency change    = 0.0111974
throughput change = 0.0614407
Class 0:
Packet latency average = 20.3445
	minimum = 7
	maximum = 52
Network latency average = 20.3445
	minimum = 7
	maximum = 52
Slowest packet = 5601
Flit latency average = 20.3445
	minimum = 7
	maximum = 52
Slowest flit = 5601
Fragmentation average = 0
	minimum = 0
	maximum = 0
Injected packet rate average = 0.010375
	minimum = 0.007 (at node 11)
	maximum = 0.0165 (at node 8)
Accepted packet rate average = 0.01025
	minimum = 0.007 (at node 8)
	maximum = 0.014 (at node 3)
Injected flit rate average = 0.010375
	minimum = 0.007 (at node 11)
	maximum = 0.0165 (at node 8)
Accepted flit rate average= 0.01025
	minimum = 0.007 (at node 8)
	maximum = 0.014 (at node 3)
Injected packet length average = 1
Accepted packet length average = 1
Total in-flight flits = 4 (4 measured)
latency change    = 0.0165174
throughput change = 0.0406504
Class 0:
Packet latency average = 20.5829
	minimum = 7
	maximum = 57
Network latency average = 20.5829
	minimum = 7
	maximum = 57
Slowest packet = 5904
Flit latency average = 20.5829
	minimum = 7
	maximum = 57
Slowest flit = 5904
Fragmentation average = 0
	minimum = 0
	maximum = 0
Injected packet rate average = 0.0103
	minimum = 0.0076 (at node 12)
	maximum = 0.0152 (at node 8)
Accepted packet rate average = 0.01025
	minimum = 0.0072 (at node 5)
	maximum = 0.0128 (at node 12)
Injected flit rate average = 0.0103
	minimum = 0.0076 (at node 12)
	maximum = 0.0152 (at node 8)
Accepted flit rate average= 0.01025
	minimum = 0.0072 (at node 5)
	maximum = 0.0128 (at node 12)
Injected packet length average = 1
Accepted packet length average = 1
Total in-flight flits = 2 (2 measured)
latency change    = 0.0115831
throughput change = 0
Class 0:
Packet latency average = 20.7406
	minimum = 7
	maximum = 57
Network latency average = 20.7406
	minimum = 7
	maximum = 57
Slowest packet = 5904
Flit latency average = 20.7406
	minimum = 7
	maximum = 57
Slowest flit = 5904
Fragmentation average = 0
	minimum = 0
	maximum = 0
Injected packet rate average = 0.01
	minimum = 0.007 (at node 12)
	maximum = 0.0136667 (at node 8)
Accepted packet rate average = 0.00995833
	minimum = 0.007 (at node 5)
	maximum = 0.0123333 (at node 3)
Injected flit rate average = 0.01
	minimum = 0.007 (at node 12)
	maximum = 0.0136667 (at node 8)
Accepted flit rate average= 0.00995833
	minimum = 0.007 (at node 5)
	maximum = 0.0123333 (at node 3)
Injected packet length average = 1
Accepted packet length average = 1
Total in-flight flits = 2 (2 measured)
latency change    = 0.00760147
throughput change = 0.0292887
Draining all recorded packets ...
Draining remaining packets ...
Time taken is 4547 cycles
Class 0:
Packet latency average = 21.2857
	minimum = 12
	maximum = 45
Network latency average = 21.2857
	minimum = 12
	maximum = 45
Slowest packet = 6040
Flit latency average = 21.2857
	minimum = 12
	maximum = 45
Slowest flit = 6040
Fragmentation average = 0
	minimum = 0
	maximum = 0
Injected packet rate average = 0.0085
	minimum = 0.002 (at node 8)
	maximum = 0.022 (at node 1)
Accepted packet rate average = 0.007875
	minimum = 0.002 (at node 10)
	maximum = 0.014 (at node 13)
Injected flit rate average = 0.0085
	minimum = 0.002 (at node 8)
	maximum = 0.022 (at node 1)
Accepted flit rate average= 0.007875
	minimum = 0.002 (at node 10)
	maximum = 0.014 (at node 13)
Injected packet length average = 1
Accepted packet length average = 1
Total in-flight flits = 5 (0 measured)
latency change    = 1
throughput change = 1
Class 0:
Packet latency average = 20.5782
	minimum = 7
	maximum = 47
Network latency average = 20.5782
	minimum = 7
	maximum = 47
Slowest packet = 6089
Flit latency average = 20.5782
	minimum = 7
	maximum = 47
Slowest flit = 6089
Fragmentation average = 0
	minimum = 0
	maximum = 0
Injected packet rate average = 0.009625
	minimum = 0.006 (at node 13)
	maximum = 0.018 (at node 1)
Accepted packet rate average = 0.0091875
	minimum = 0.003 (at node 14)
	maximum = 0.014 (at node 5)
Injected flit rate average = 0.009625
	minimum = 0.006 (at node 13)
	maximum = 0.018 (at node 1)
Accepted flit rate average= 0.0091875
	minimum = 0.003 (at node 14)
	maximum = 0.014 (at node 5)
Injected packet length average = 1
Accepted packet length average = 1
Total in-flight flits = 7 (0 measured)
latency change    = 0.0343802
throughput change = 0.142857
Class 0:
Packet latency average = 19.2
	minimum = 7
	maximum = 37
Network latency average = 19.2
	minimum = 7
	maximum = 37
Slowest packet = 6172
Flit latency average = 19.2
	minimum = 7
	maximum = 37
Slowest flit = 6172
Fragmentation average = 0
	minimum = 0
	maximum = 0
Injected packet rate average = 0.00975
	minimum = 0.006 (at node 1)
	maximum = 0.016 (at node 3)
Accepted packet rate average = 0.010625
	minimum = 0.002 (at node 3)
	maximum = 0.026 (at node 15)
Injected flit rate average = 0.00975
	minimum = 0.006 (at node 1)
	maximum = 0.016 (at node 3)
Accepted flit rate average= 0.010625
	minimum = 0.002 (at node 3)
	maximum = 0.026 (at node 15)
Injected packet length average = 1
Accepted packet length average = 1
Total in-flight flits = 0 (0 measured)
latency change    = 0.0717829
throughput change = 0.135294
Warmed up ...Time used is 1500 cycles
Class 0:
Packet latency average = 19.9487
	minimum = 7
	maximum = 52
Network latency average = 19.9487
	minimum = 7
	maximum = 52
Slowest packet = 6251
Flit latency average = 19.9487
	minimum = 7
	maximum = 52
Slowest flit = 6251
Fragmentation average = 0
	minimum = 0
	maximum = 0
Injected packet rate average = 0.01025
	minimum = 0.006 (at node 2)
	maximum = 0.022 (at node 11)
Accepted packet rate average = 0.00975
	minimum = 0.002 (at node 15)
	maximum = 0.016 (at node 4)
Injected flit rate average = 0.01025
	minimum = 0.006 (at node 2)
	maximum = 0.022 (at node 11)
Accepted flit rate average= 0.00975
	minimum = 0.002 (at node 15)
	maximum = 0.016 (at node 4)
Injected packet length average = 1
Accepted packet length average = 1
Total in-flight flits = 4 (4 measured)
latency change    = 0.0375321
throughput change = 0.0897436
Class 0:
Packet latency average = 20.7097
	minimum = 7
	maximum = 57
Network latency average = 20.7097
	minimum = 7
	maximum = 57
Slowest packet = 6338
Flit latency average = 20.7097
	minimum = 7
	maximum = 57
Slowest flit = 6338
Fragmentation average = 0
	minimum = 0
	maximum = 0
Injected packet rate average = 0.00975
	minimum = 0.006 (at node 2)
	maximum = 0.014 (at node 11)
Accepted packet rate average = 0.0096875
	minimum = 0.004 (at node 15)
	maximum = 0.014 (at node 4)
Injected flit rate average = 0.00975
	minimum = 0.006 (at node 2)
	maximum = 0.014 (at node 11)
Accepted flit rate average= 0.0096875
	minimum = 0.004 (at node 15)
	maximum = 0.014 (at node 4)
Injected packet length average = 1
Accepted packet length average = 1
Total in-flight flits = 1 (1 measured)
latency change    = 0.0367441
throughput change = 0.00645161
Class 0:
Packet latency average = 20.7089
	minimum = 7
	maximum = 57
Network latency average = 20.7089
	minimum = 7
	maximum = 57
Slowest packet = 6338
Flit latency average = 20.7089
	minimum = 7
	maximum = 57
Slowest flit = 6338
Fragmentation average = 0
	minimum = 0
	maximum = 0
Injected packet rate average = 0.00904167
	minimum = 0.004 (at node 13)
	maximum = 0.014 (at node 11)
Accepted packet rate average = 0.008875
	minimum = 0.006 (at node 8)
	maximum = 0.014 (at node 5)
Injected flit rate average = 0.00904167
	minimum = 0.004 (at node 13)
	maximum = 0.014 (at node 11)
Accepted flit rate average= 0.008875
	minimum = 0.006 (at node 8)
	maximum = 0.014 (at node 5)
Injected packet length average = 1
Accepted packet length average = 1
Total in-flight flits = 4 (4 measured)
latency change    = 3.65655e-05
throughput change = 0.0915493
Class 0:
Packet latency average = 20.5586
	minimum = 7
	maximum = 57
Network latency average = 20.5586
	minimum = 7
	maximum = 57
Slowest packet = 6338
Flit latency average = 20.5586
	minimum = 7
	maximum = 57
Slowest flit = 6338
Fragmentation average = 0
	minimum = 0
	maximum = 0
Injected packet rate average = 0.00928125
	minimum = 0.0065 (at node 13)
	maximum = 0.014 (at node 0)
Accepted packet rate average = 0.0090625
	minimum = 0.0055 (at node 8)
	maximum = 0.0135 (at node 5)
Injected flit rate average = 0.00928125
	minimum = 0.0065 (at node 13)
	maximum = 0.014 (at node 0)
Accepted flit rate average= 0.0090625
	minimum = 0.0055 (at node 8)
	maximum = 0.0135 (at node 5)
Injected packet length average = 1
Accepted packet length average = 1
Total in-flight flits = 7 (7 measured)
latency change    = 0.00731078
throughput change = 0.0206897
Class 0:
Packet latency average = 20.376
	minimum = 7
	maximum = 57
Network latency average = 20.376
	minimum = 7
	maximum = 57
Slowest packet = 6338
Flit latency average = 20.376
	minimum = 7
	maximum = 57
Slowest flit = 6338
Fragmentation average = 0
	minimum = 0
	maximum = 0
Injected packet rate average = 0.0095
	minimum = 0.0064 (at node 13)
	maximum = 0.012 (at node 1)
Accepted packet rate average = 0.009375
	minimum = 0.0064 (at node 10)
	maximum = 0.0124 (at node 4)
Injected flit rate average = 0.0095
	minimum = 0.0064 (at node 13)
	maximum = 0.012 (at node 1)
Accepted flit rate average= 0.009375
	minimum = 0.0064 (at node 10)
	maximum = 0.0124 (at node 4)
Injected packet length average = 1
Accepted packet length average = 1
Total in-flight flits = 5 (5 measured)
latency change    = 0.00896254
throughput change = 0.0333333
Class 0:
Packet latency average = 20.4452
	minimum = 7
	maximum = 57
Network latency average = 20.4452
	minimum = 7
	maximum = 57
Slowest packet = 6338
Flit latency average = 20.4452
	minimum = 7
	maximum = 57
Slowest flit = 6338
Fragmentation average = 0
	minimum = 0
	maximum = 0
Injected packet rate average = 0.00960417
	minimum = 0.00666667 (at node 7)
	maximum = 0.0126667 (at node 0)
Accepted packet rate average = 0.0095
	minimum = 0.00633333 (at node 12)
	maximum = 0.0123333 (at node 4)
Injected flit rate average = 0.00960417
	minimum = 0.00666667 (at node 7)
	maximum = 0.0126667 (at node 0)
Accepted flit rate average= 0.0095
	minimum = 0.00633333 (at node 12)
	maximum = 0.0123333 (at node 4)
Injected packet length average = 1
Accepted packet length average = 1
Total in-flight flits = 5 (5 measured)
latency change    = 0.00338346
throughput change = 0.0131579
Draining all recorded packets ...
Draining remaining packets ...
Time taken is 4548 cycles
Class 0:
Packet latency average = 19.8182
	minimum = 7
	maximum = 42
Network latency average = 19.8182
	minimum = 7
	maximum = 42
Slowest packet = 6747
Flit latency average = 19.8182
	minimum = 7
	maximum = 42
Slowest flit = 6747
Fragmentation average = 0
	minimum = 0
	maximum = 0
Injected packet rate average = 0.011
	minimum = 0.006 (at node 1)
	maximum = 0.02 (at node 4)
Accepted packet rate average = 0.011
	minimum = 0.006 (at node 2)
	maximum = 0.02 (at node 0)
Injected flit rate average = 0.011
	minimum = 0.006 (at node 1)
	maximum = 0.02 (at node 4)
Accepted flit rate average= 0.011
	minimum = 0.006 (at node 2)
	maximum = 0.02 (at node 0)
Injected packet length average = 1
Accepted packet length average = 1
Total in-flight flits = 0 (0 measured)
latency change    = 1
throughput change = 1
Class 0:
Packet latency average = 20.0245
	minimum = 7
	maximum = 42
Network latency average = 20.0245
	minimum = 7
	maximum = 42
Slowest packet = 6747
Flit latency average = 20.0245
	minimum = 7
	maximum = 42
Slowest flit = 6747
Fragmentation average = 0
	minimum = 0
	maximum = 0
Injected packet rate average = 0.0105625
	minimum = 0.006 (at node 14)
	maximum = 0.017 (at node 4)
Accepted packet rate average = 0.0101875
	minimum = 0.004 (at node 2)
	maximum = 0.018 (at node 0)
Injected flit rate average = 0.0105625
	minimum = 0.006 (at node 14)
	maximum = 0.017 (at node 4)
Accepted flit rate average= 0.0101875
	minimum = 0.004 (at node 2)
	maximum = 0.018 (at node 0)
Injected packet length average = 1
Accepted packet length average = 1
Total in-flight flits = 6 (0 measured)
latency change    = 0.0103053
throughput change = 0.0797546
Class 0:
Packet latency average = 20.5287
	minimum = 7
	maximum = 42
Network latency average = 20.5287
	minimum = 7
	maximum = 42
Slowest packet = 6911
Flit latency average = 20.5287
	minimum = 7
	maximum = 42
Slowest flit = 6911
Fragmentation average = 0
	minimum = 0
	maximum = 0
Injected packet rate average = 0.010375
	minimum = 0.004 (at node 12)
	maximum = 0.02 (at node 10)
Accepted packet rate average = 0.010875
	minimum = 0.006 (at node 12)
	maximum = 0.018 (at node 8)
Injected flit rate average = 0.010375
	minimum = 0.004 (at node 12)
	maximum = 0.02 (at node 10)
Accepted flit rate average= 0.010875
	minimum = 0.006 (at node 12)
	maximum = 0.018 (at node 8)
Injected packet length average = 1
Accepted packet length average = 1
Total in-flight flits = 2 (0 measured)
latency change    = 0.0245605
throughput change = 0.0632184
Warmed up ...Time used is 1500 cycles
Class 0:
Packet latency average = 22.022
	minimum = 7
	maximum = 57
Network latency average = 22.022
	minimum = 7
	maximum = 57
Slowest packet = 6997
Flit latency average = 21.8602
	minimum = 7
	maximum = 57
Slowest flit = 6997
Fragmentation average = 0
	minimum = 0
	maximum = 0
Injected packet rate average = 0.0115
	minimum = 0.004 (at node 10)
	maximum = 0.018 (at node 11)
Accepted packet rate average = 0.011625
	minimum = 0.002 (at node 2)
	maximum = 0.024 (at node 5)
Injected flit rate average = 0.0115
	minimum = 0.004 (at node 10)
	maximum = 0.018 (at node 11)
Accepted flit rate average= 0.011625
	minimum = 0.002 (at node 2)
	maximum = 0.024 (at node 5)
Injected packet length average = 1
Accepted packet length average = 1
Total in-flight flits = 1 (1 measured)
latency change    = 0.0678069
throughput change = 0.0645161
Class 0:
Packet latency average = 21.6369
	minimum = 7
	maximum = 57
Network latency average = 21.6369
	minimum = 7
	maximum = 57
Slowest packet = 6997
Flit latency average = 21.5529
	minimum = 7
	maximum = 57
Slowest flit = 6997
Fragmentation average = 0
	minimum = 0
	maximum = 0
Injected packet rate average = 0.0106875
	minimum = 0.007 (at node 6)
	maximum = 0.015 (at node 3)
Accepted packet rate average = 0.010625
	minimum = 0.005 (at node 2)
	maximum = 0.017 (at node 5)
Injected flit rate average = 0.0106875
	minimum = 0.007 (at node 6)
	maximum = 0.015 (at node 3)
Accepted flit rate average= 0.010625
	minimum = 0.005 (at node 2)
	maximum = 0.017 (at node 5)
Injected packet length average = 1
Accepted packet length average = 1
Total in-flight flits = 3 (3 measured)
latency change    = 0.0177971
throughput change = 0.0941176
Class 0:
Packet latency average = 21.5726
	minimum = 7
	maximum = 57
Network latency average = 21.5726
	minimum = 7
	maximum = 57
Slowest packet = 6997
Flit latency average = 21.5127
	minimum = 7
	maximum = 57
Slowest flit = 6997
Fragmentation average = 0
	minimum = 0
	maximum = 0
Injected packet rate average = 0.00983333
	minimum = 0.00666667 (at node 10)
	maximum = 0.0133333 (at node 15)
Accepted packet rate average = 0.00983333
	minimum = 0.00666667 (at node 7)
	maximum = 0.016 (at node 5)
Injected flit rate average = 0.00983333
	minimum = 0.00666667 (at node 10)
	maximum = 0.0133333 (at node 15)
Accepted flit rate average= 0.00983333
	minimum = 0.00666667 (at node 7)
	maximum = 0.016 (at node 5)
Injected packet length average = 1
Accepted packet length average = 1
Total in-flight flits = 2 (2 measured)
latency change    = 0.00297855
throughput change = 0.0805085
Class 0:
Packet latency average = 21.1905
	minimum = 7
	maximum = 57
Network latency average = 21.1905
	minimum = 7
	maximum = 57
Slowest packet = 6997
Flit latency average = 21.1483
	minimum = 7
	maximum = 57
Slowest flit = 6997
Fragmentation average = 0
	minimum = 0
	maximum = 0
Injected packet rate average = 0.009875
	minimum = 0.007 (at node 2)
	maximum = 0.016 (at node 4)
Accepted packet rate average = 0.00990625
	minimum = 0.0075 (at node 2)
	maximum = 0.015 (at node 5)
Injected flit rate average = 0.009875
	minimum = 0.007 (at node 2)
	maximum = 0.016 (at node 4)
Accepted flit rate average= 0.00990625
	minimum = 0.0075 (at node 2)
	maximum = 0.015 (at node 5)
Injected packet length average = 1
Accepted packet length average = 1
Total in-flight flits = 1 (1 measured)
latency change    = 0.0180351
throughput change = 0.00736067
Class 0:
Packet latency average = 21.0128
	minimum = 7
	maximum = 57
Network latency average = 21.0128
	minimum = 7
	maximum = 57
Slowest packet = 6997
Flit latency average = 20.9796
	minimum = 7
	maximum = 57
Slowest flit = 6997
Fragmentation average = 0
	minimum = 0
	maximum = 0
Injected packet rate average = 0.009825
	minimum = 0.0072 (at node 2)
	maximum = 0.014 (at node 4)
Accepted packet rate average = 0.0098
	minimum = 0.0064 (at node 7)
	maximum = 0.0144 (at node 14)
Injected flit rate average = 0.009825
	minimum = 0.0072 (at node 2)
	maximum = 0.014 (at node 4)
Accepted flit rate average= 0.0098
	minimum = 0.0064 (at node 7)
	maximum = 0.0144 (at node 14)
Injected packet length average = 1
Accepted packet length average = 1
Total in-flight flits = 3 (3 measured)
latency change    = 0.00845463
throughput change = 0.0108418
Class 0:
Packet latency average = 21.2244
	minimum = 7
	maximum = 57
Network latency average = 21.2244
	minimum = 7
	maximum = 57
Slowest packet = 6997
Flit latency average = 21.1952
	minimum = 7
	maximum = 57
Slowest flit = 6997
Fragmentation average = 0
	minimum = 0
	maximum = 0
Injected packet rate average = 0.00958333
	minimum = 0.007 (at node 2)
	maximum = 0.0133333 (at node 4)
Accepted packet rate average = 0.00960417
	minimum = 0.006 (at node 3)
	maximum = 0.0143333 (at node 14)
Injected flit rate average = 0.00958333
	minimum = 0.007 (at node 2)
	maximum = 0.0133333 (at node 4)
Accepted flit rate average= 0.00960417
	minimum = 0.006 (at node 3)
	maximum = 0.0143333 (at node 14)
Injected packet length average = 1
Accepted packet length average = 1
Total in-flight flits = 1 (1 measured)
latency change    = 0.00996873
throughput change = 0.0203905
Draining all recorded packets ...
Draining remaining packets ...
Time taken is 4554 cycles
Class 0:
Packet latency average = 19.9753
	minimum = 7
	maximum = 57
Network latency average = 19.9753
	minimum = 7
	maximum = 57
Slowest packet = 7431
Flit latency average = 19.9753
	minimum = 7
	maximum = 57
Slowest flit = 7431
Fragmentation average = 0
	minimum = 0
	maximum = 0
Injected packet rate average = 0.01025
	minimum = 0 (at node 1)
	maximum = 0.022 (at node 2)
Accepted packet rate average = 0.010125
	minimum = 0.004 (at node 7)
	maximum = 0.02 (at node 6)
Injected flit rate average = 0.01025
[...]
	minimum = 7
	maximum = 47
Network latency average = 18.7292
	minimum = 7
	maximum = 47
Slowest packet = 32107
Flit latency average = 18.7292
	minimum = 7
	maximum = 47
Slowest flit = 32107
Fragmentation average = 0
	minimum = 0
	maximum = 0
Injected packet rate average = 0.01225
	minimum = 0.008 (at node 5)
	maximum = 0.016 (at node 0)
Accepted packet rate average = 0.012
	minimum = 0.004 (at node 0)
	maximum = 0.024 (at node 7)
Injected flit rate average = 0.01225
	minimum = 0.008 (at node 5)
	maximum = 0.016 (at node 0)
Accepted flit rate average= 0.012
	minimum = 0.004 (at node 0)
	maximum = 0.024 (at node 7)
Injected packet length average = 1
Accepted packet length average = 1
Total in-flight flits = 2 (2 measured)
latency change    = 0.139305
throughput change = 0.291667
Class 0:
Packet latency average = 19.8857
	minimum = 7
	maximum = 47
Network latency average = 19.8857
	minimum = 7
	maximum = 47
Slowest packet = 32107
Flit latency average = 19.8857
	minimum = 7
	maximum = 47
Slowest flit = 32107
Fragmentation average = 0
	minimum = 0
	maximum = 0
Injected packet rate average = 0.0111875
	minimum = 0.006 (at node 5)
	maximum = 0.014 (at node 6)
Accepted packet rate average = 0.0109375
	minimum = 0.007 (at node 4)
	maximum = 0.017 (at node 10)
Injected flit rate average = 0.0111875
	minimum = 0.006 (at node 5)
	maximum = 0.014 (at node 6)
Accepted flit rate average= 0.0109375
	minimum = 0.007 (at node 4)
	maximum = 0.017 (at node 10)
Injected packet length average = 1
Accepted packet length average = 1
Total in-flight flits = 4 (4 measured)
latency change    = 0.0581597
throughput change = 0.0971429
Class 0:
Packet latency average = 20.2088
	minimum = 7
	maximum = 47
Network latency average = 20.2088
	minimum = 7
	maximum = 47
Slowest packet = 32107
Flit latency average = 20.2088
	minimum = 7
	maximum = 47
Slowest flit = 32107
Fragmentation average = 0
	minimum = 0
	maximum = 0
Injected packet rate average = 0.0104167
	minimum = 0.00533333 (at node 5)
	maximum = 0.014 (at node 15)
Accepted packet rate average = 0.010375
	minimum = 0.00733333 (at node 11)
	maximum = 0.014 (at node 10)
Injected flit rate average = 0.0104167
	minimum = 0.00533333 (at node 5)
	maximum = 0.014 (at node 15)
Accepted flit rate average= 0.010375
	minimum = 0.00733333 (at node 11)
	maximum = 0.014 (at node 10)
Injected packet length average = 1
Accepted packet length average = 1
Total in-flight flits = 1 (1 measured)
latency change    = 0.0159891
throughput change = 0.0542169
Class 0:
Packet latency average = 20.2031
	minimum = 7
	maximum = 47
Network latency average = 20.2031
	minimum = 7
	maximum = 47
Slowest packet = 32107
Flit latency average = 20.2031
	minimum = 7
	maximum = 47
Slowest flit = 32107
Fragmentation average = 0
	minimum = 0
	maximum = 0
Injected packet rate average = 0.0103125
	minimum = 0.007 (at node 5)
	maximum = 0.014 (at node 15)
Accepted packet rate average = 0.0101563
	minimum = 0.007 (at node 11)
	maximum = 0.014 (at node 1)
Injected flit rate average = 0.0103125
	minimum = 0.007 (at node 5)
	maximum = 0.014 (at node 15)
Accepted flit rate average= 0.0101563
	minimum = 0.007 (at node 11)
	maximum = 0.014 (at node 1)
Injected packet length average = 1
Accepted packet length average = 1
Total in-flight flits = 5 (5 measured)
latency change    = 0.000285027
throughput change = 0.0215385
Class 0:
Packet latency average = 20.2333
	minimum = 7
	maximum = 52
Network latency average = 20.2333
	minimum = 7
	maximum = 52
Slowest packet = 32371
Flit latency average = 20.2333
	minimum = 7
	maximum = 52
Slowest flit = 32371
Fragmentation average = 0
	minimum = 0
	maximum = 0
Injected packet rate average = 0.010525
	minimum = 0.0072 (at node 5)
	maximum = 0.0144 (at node 15)
Accepted packet rate average = 0.0105
	minimum = 0.0072 (at node 11)
	maximum = 0.0148 (at node 1)
Injected flit rate average = 0.010525
	minimum = 0.0072 (at node 5)
	maximum = 0.0144 (at node 15)
Accepted flit rate average= 0.0105
	minimum = 0.0072 (at node 11)
	maximum = 0.0148 (at node 1)
Injected packet length average = 1
Accepted packet length average = 1
Total in-flight flits = 1 (1 measured)
latency change    = 0.00149537
throughput change = 0.0327381
Class 0:
Packet latency average = 20.2638
	minimum = 7
	maximum = 57
Network latency average = 20.2638
	minimum = 7
	maximum = 57
Slowest packet = 32502
Flit latency average = 20.2638
	minimum = 7
	maximum = 57
Slowest flit = 32502
Fragmentation average = 0
	minimum = 0
	maximum = 0
Injected packet rate average = 0.010625
	minimum = 0.00733333 (at node 5)
	maximum = 0.014 (at node 15)
Accepted packet rate average = 0.0105833
	minimum = 0.00766667 (at node 11)
	maximum = 0.014 (at node 1)
Injected flit rate average = 0.010625
	minimum = 0.00733333 (at node 5)
	maximum = 0.014 (at node 15)
Accepted flit rate average= 0.0105833
	minimum = 0.00766667 (at node 11)
	maximum = 0.014 (at node 1)
Injected packet length average = 1
Accepted packet length average = 1
Total in-flight flits = 2 (2 measured)
latency change    = 0.00150249
throughput change = 0.00787402
Draining all recorded packets ...
Draining remaining packets ...
Time taken is 4518 cycles
Class 0:
Packet latency average = 23.3452
	minimum = 7
	maximum = 57
Network latency average = 23.3452
	minimum = 7
	maximum = 57
Slowest packet = 32603
Flit latency average = 23.3452
	minimum = 7
	maximum = 57
Slowest flit = 32603
Fragmentation average = 0
	minimum = 0
	maximum = 0
Injected packet rate average = 0.01075
	minimum = 0.004 (at node 6)
	maximum = 0.022 (at node 2)
Accepted packet rate average = 0.0105
	minimum = 0.004 (at node 15)
	maximum = 0.018 (at node 3)
Injected flit rate average = 0.01075
	minimum = 0.004 (at node 6)
	maximum = 0.022 (at node 2)
Accepted flit rate average= 0.0105
	minimum = 0.004 (at node 15)
	maximum = 0.018 (at node 3)
Injected packet length average = 1
Accepted packet length average = 1
Total in-flight flits = 2 (0 measured)
latency change    = 1
throughput change = 1
Class 0:
Packet latency average = 21.2143
	minimum = 7
	maximum = 57
Network latency average = 21.2143
	minimum = 7
	maximum = 57
Slowest packet = 32603
Flit latency average = 21.2143
	minimum = 7
	maximum = 57
Slowest flit = 32603
Fragmentation average = 0
	minimum = 0
	maximum = 0
Injected packet rate average = 0.01075
	minimum = 0.007 (at node 7)
	maximum = 0.018 (at node 0)
Accepted packet rate average = 0.0105
	minimum = 0.004 (at node 15)
	maximum = 0.017 (at node 1)
Injected flit rate average = 0.01075
	minimum = 0.007 (at node 7)
	maximum = 0.018 (at node 0)
Accepted flit rate average= 0.0105
	minimum = 0.004 (at node 15)
	maximum = 0.017 (at node 1)
Injected packet length average = 1
Accepted packet length average = 1
Total in-flight flits = 4 (0 measured)
latency change    = 0.100449
throughput change = 0
Class 0:
Packet latency average = 19.6489
	minimum = 7
	maximum = 42
Network latency average = 19.6489
	minimum = 7
	maximum = 42
Slowest packet = 32748
Flit latency average = 19.6489
	minimum = 7
	maximum = 42
Slowest flit = 32748
Fragmentation average = 0
	minimum = 0
	maximum = 0
Injected packet rate average = 0.01175
	minimum = 0.004 (at node 5)
	maximum = 0.022 (at node 3)
Accepted packet rate average = 0.01175
	minimum = 0.002 (at node 11)
	maximum = 0.022 (at node 10)
Injected flit rate average = 0.01175
	minimum = 0.004 (at node 5)
	maximum = 0.022 (at node 3)
Accepted flit rate average= 0.01175
	minimum = 0.002 (at node 11)
	maximum = 0.022 (at node 10)
Injected packet length average = 1
Accepted packet length average = 1
Total in-flight flits = 4 (0 measured)
latency change    = 0.0796659
throughput change = 0.106383
Warmed up ...Time used is 1500 cycles
Class 0:
Packet latency average = 19.6857
	minimum = 7
	maximum = 57
Network latency average = 19.6857
	minimum = 7
	maximum = 57
Slowest packet = 32811
Flit latency average = 20.0135
	minimum = 7
	maximum = 57
Slowest flit = 32811
Fragmentation average = 0
	minimum = 0
	maximum = 0
Injected packet rate average = 0.009125
	minimum = 0 (at node 13)
	maximum = 0.022 (at node 10)
Accepted packet rate average = 0.00925
	minimum = 0.002 (at node 4)
	maximum = 0.022 (at node 1)
Injected flit rate average = 0.009125
	minimum = 0 (at node 13)
	maximum = 0.022 (at node 10)
Accepted flit rate average= 0.00925
	minimum = 0.002 (at node 4)
	maximum = 0.022 (at node 1)
Injected packet length average = 1
Accepted packet length average = 1
Total in-flight flits = 3 (3 measured)
latency change    = 0.00186826
throughput change = 0.27027
Class 0:
Packet latency average = 19.8125
	minimum = 7
	maximum = 57
Network latency average = 19.8125
	minimum = 7
	maximum = 57
Slowest packet = 32811
Flit latency average = 19.9573
	minimum = 7
	maximum = 57
Slowest flit = 32811
Fragmentation average = 0
	minimum = 0
	maximum = 0
Injected packet rate average = 0.010125
	minimum = 0.003 (at node 13)
	maximum = 0.019 (at node 10)
Accepted packet rate average = 0.01025
	minimum = 0.005 (at node 14)
	maximum = 0.019 (at node 7)
Injected flit rate average = 0.010125
	minimum = 0.003 (at node 13)
	maximum = 0.019 (at node 10)
Accepted flit rate average= 0.01025
	minimum = 0.005 (at node 14)
	maximum = 0.019 (at node 7)
Injected packet length average = 1
Accepted packet length average = 1
Total in-flight flits = 2 (2 measured)
latency change    = 0.00639928
throughput change = 0.097561
Class 0:
Packet latency average = 20.4615
	minimum = 7
	maximum = 57
Network latency average = 20.4615
	minimum = 7
	maximum = 57
Slowest packet = 32811
Flit latency average = 20.5504
	minimum = 7
	maximum = 57
Slowest flit = 32811
Fragmentation average = 0
	minimum = 0
	maximum = 0
Injected packet rate average = 0.00991667
	minimum = 0.004 (at node 8)
	maximum = 0.016 (at node 10)
Accepted packet rate average = 0.00991667
	minimum = 0.006 (at node 4)
	maximum = 0.016 (at node 1)
Injected flit rate average = 0.00991667
	minimum = 0.004 (at node 8)
	maximum = 0.016 (at node 10)
Accepted flit rate average= 0.00991667
	minimum = 0.006 (at node 4)
	maximum = 0.016 (at node 1)
Injected packet length average = 1
Accepted packet length average = 1
Total in-flight flits = 4 (4 measured)
latency change    = 0.0317199
throughput change = 0.0336134
Class 0:
Packet latency average = 20.5512
	minimum = 7
	maximum = 57
Network latency average = 20.5512
	minimum = 7
	maximum = 57
Slowest packet = 32811
Flit latency average = 20.6189
	minimum = 7
	maximum = 57
Slowest flit = 32811
Fragmentation average = 0
	minimum = 0
	maximum = 0
Injected packet rate average = 0.00965625
	minimum = 0.0045 (at node 8)
	maximum = 0.0155 (at node 10)
Accepted packet rate average = 0.00959375
	minimum = 0.005 (at node 4)
	maximum = 0.014 (at node 3)
Injected flit rate average = 0.00965625
	minimum = 0.0045 (at node 8)
	maximum = 0.0155 (at node 10)
Accepted flit rate average= 0.00959375
	minimum = 0.005 (at node 4)
	maximum = 0.014 (at node 3)
Injected packet length average = 1
Accepted packet length average = 1
Total in-flight flits = 6 (6 measured)
latency change    = 0.00436066
throughput change = 0.0336591
Class 0:
Packet latency average = 20.6995
	minimum = 7
	maximum = 57
Network latency average = 20.6995
	minimum = 7
	maximum = 57
Slowest packet = 32811
Flit latency average = 20.75
	minimum = 7
	maximum = 57
Slowest flit = 32811
Fragmentation average = 0
	minimum = 0
	maximum = 0
Injected packet rate average = 0.00995
	minimum = 0.0056 (at node 4)
	maximum = 0.0148 (at node 10)
Accepted packet rate average = 0.01
	minimum = 0.0064 (at node 14)
	maximum = 0.0132 (at node 3)
Injected flit rate average = 0.00995
	minimum = 0.0056 (at node 4)
	maximum = 0.0148 (at node 10)
Accepted flit rate average= 0.01
	minimum = 0.0064 (at node 14)
	maximum = 0.0132 (at node 3)
Injected packet length average = 1
Accepted packet length average = 1
Total in-flight flits = 2 (2 measured)
latency change    = 0.00716635
throughput change = 0.040625
Draining all recorded packets ...
Draining remaining packets ...
Time taken is 4042 cycles
Class 0:
Packet latency average = 19.6706
	minimum = 7
	maximum = 42
Network latency average = 19.6706
	minimum = 7
	maximum = 42
Slowest packet = 33286
Flit latency average = 19.6706
	minimum = 7
	maximum = 42
Slowest flit = 33286
Fragmentation average = 0
	minimum = 0
	maximum = 0
Injected packet rate average = 0.011125
	minimum = 0.006 (at node 2)
	maximum = 0.02 (at node 5)
Accepted packet rate average = 0.010625
	minimum = 0.004 (at node 0)
	maximum = 0.018 (at node 5)
Injected flit rate average = 0.011125
	minimum = 0.006 (at node 2)
	maximum = 0.02 (at node 5)
Accepted flit rate average= 0.010625
	minimum = 0.004 (at node 0)
	maximum = 0.018 (at node 5)
Injected packet length average = 1
Accepted packet length average = 1
Total in-flight flits = 4 (0 measured)
latency change    = 1
throughput change = 1
Class 0:
Packet latency average = 20.9273
	minimum = 7
	maximum = 52
Network latency average = 20.9273
	minimum = 7
	maximum = 52
Slowest packet = 33351
Flit latency average = 20.9273
	minimum = 7
	maximum = 52
Slowest flit = 33351
Fragmentation average = 0
	minimum = 0
	maximum = 0
Injected packet rate average = 0.010375
	minimum = 0.007 (at node 2)
	maximum = 0.015 (at node 11)
Accepted packet rate average = 0.0103125
	minimum = 0.005 (at node 0)
	maximum = 0.018 (at node 9)
Injected flit rate average = 0.010375
	minimum = 0.007 (at node 2)
	maximum = 0.015 (at node 11)
Accepted flit rate average= 0.0103125
	minimum = 0.005 (at node 0)
	maximum = 0.018 (at node 9)
Injected packet length average = 1
Accepted packet length average = 1
Total in-flight flits = 1 (0 measured)
latency change    = 0.0600501
throughput change = 0.030303
Class 0:
Packet latency average = 20.527
	minimum = 7
	maximum = 57
Network latency average = 20.527
	minimum = 7
	maximum = 57
Slowest packet = 33426
Flit latency average = 20.527
	minimum = 7
	maximum = 57
Slowest flit = 33426
Fragmentation average = 0
	minimum = 0
	maximum = 0
Injected packet rate average = 0.0095
	minimum = 0.002 (at node 1)
	maximum = 0.02 (at node 6)
Accepted packet rate average = 0.00925
	minimum = 0.004 (at node 7)
	maximum = 0.014 (at node 1)
Injected flit rate average = 0.0095
	minimum = 0.002 (at node 1)
	maximum = 0.02 (at node 6)
Accepted flit rate average= 0.00925
	minimum = 0.004 (at node 7)
	maximum = 0.014 (at node 1)
Injected packet length average = 1
Accepted packet length average = 1
Total in-flight flits = 3 (0 measured)
latency change    = 0.0194985
throughput change = 0.114865
Warmed up ...Time used is 1500 cycles
Class 0:
Packet latency average = 20.5065
	minimum = 7
	maximum = 47
Network latency average = 20.5065
	minimum = 7
	maximum = 47
Slowest packet = 33517
Flit latency average = 20.875
	minimum = 7
	maximum = 47
Slowest flit = 33517
Fragmentation average = 0
	minimum = 0
	maximum = 0
Injected packet rate average = 0.010125
	minimum = 0.004 (at node 3)
	maximum = 0.018 (at node 4)
Accepted packet rate average = 0.01
	minimum = 0.002 (at node 14)
	maximum = 0.018 (at node 7)
Injected flit rate average = 0.010125
	minimum = 0.004 (at node 3)
	maximum = 0.018 (at node 4)
Accepted flit rate average= 0.01
	minimum = 0.002 (at node 14)
	maximum = 0.018 (at node 7)
Injected packet length average = 1
Accepted packet length average = 1
Total in-flight flits = 4 (4 measured)
latency change    = 0.00100132
throughput change = 0.075
Class 0:
Packet latency average = 21.8889
	minimum = 7
	maximum = 57
Network latency average = 21.8889
	minimum = 7
	maximum = 57
Slowest packet = 33524
Flit latency average = 22.0612
	minimum = 7
	maximum = 57
Slowest flit = 33524
Fragmentation average = 0
	minimum = 0
	maximum = 0
Injected packet rate average = 0.0093125
	minimum = 0.005 (at node 6)
	maximum = 0.013 (at node 8)
Accepted packet rate average = 0.0091875
	minimum = 0.005 (at node 8)
	maximum = 0.018 (at node 15)
Injected flit rate average = 0.0093125
	minimum = 0.005 (at node 6)
	maximum = 0.013 (at node 8)
Accepted flit rate average= 0.0091875
	minimum = 0.005 (at node 8)
	maximum = 0.018 (at node 15)
Injected packet length average = 1
Accepted packet length average = 1
Total in-flight flits = 5 (5 measured)
latency change    = 0.0631551
throughput change = 0.0884354
Class 0:
Packet latency average = 21.6872
	minimum = 7
	maximum = 57
Network latency average = 21.6872
	minimum = 7
	maximum = 57
Slowest packet = 33524
Flit latency average = 21.8
	minimum = 7
	maximum = 57
Slowest flit = 33524
Fragmentation average = 0
	minimum = 0
	maximum = 0
Injected packet rate average = 0.009625
	minimum = 0.008 (at node 0)
	maximum = 0.0133333 (at node 4)
Accepted packet rate average = 0.00958333
	minimum = 0.00466667 (at node 8)
	maximum = 0.0173333 (at node 15)
Injected flit rate average = 0.009625
	minimum = 0.008 (at node 0)
	maximum = 0.0133333 (at node 4)
Accepted flit rate average= 0.00958333
	minimum = 0.00466667 (at node 8)
	maximum = 0.0173333 (at node 15)
Injected packet length average = 1
Accepted packet length average = 1
Total in-flight flits = 4 (4 measured)
latency change    = 0.00929876
throughput change = 0.0413043
Class 0:
Packet latency average = 21.67
	minimum = 7
	maximum = 57
Network latency average = 21.67
	minimum = 7
	maximum = 57
Slowest packet = 33524
Flit latency average = 21.7567
	minimum = 7
	maximum = 57
Slowest flit = 33524
Fragmentation average = 0
	minimum = 0
	maximum = 0
Injected packet rate average = 0.0093125
	minimum = 0.007 (at node 0)
	maximum = 0.012 (at node 8)
Accepted packet rate average = 0.009375
	minimum = 0.0045 (at node 8)
	maximum = 0.016 (at node 15)
Injected flit rate average = 0.0093125
	minimum = 0.007 (at node 0)
	maximum = 0.012 (at node 8)
Accepted flit rate average= 0.009375
	minimum = 0.0045 (at node 8)
	maximum = 0.016 (at node 15)
Injected packet length average = 1
Accepted packet length average = 1
Total in-flight flits = 1 (1 measured)
latency change    = 0.000793307
throughput change = 0.0222222
Class 0:
Packet latency average = 21.4918
	minimum = 7
	maximum = 57
Network latency average = 21.4918
	minimum = 7
	maximum = 57
Slowest packet = 33524
Flit latency average = 21.5633
	minimum = 7
	maximum = 57
Slowest flit = 33524
Fragmentation average = 0
	minimum = 0
	maximum = 0
Injected packet rate average = 0.009325
	minimum = 0.0068 (at node 9)
	maximum = 0.0124 (at node 8)
Accepted packet rate average = 0.009275
	minimum = 0.0052 (at node 8)
	maximum = 0.0156 (at node 15)
Injected flit rate average = 0.009325
	minimum = 0.0068 (at node 9)
	maximum = 0.0124 (at node 8)
Accepted flit rate average= 0.009275
	minimum = 0.0052 (at node 8)
	maximum = 0.0156 (at node 15)
Injected packet length average = 1
Accepted packet length average = 1
Total in-flight flits = 5 (5 measured)
latency change    = 0.00829086
throughput change = 0.0107817
Draining all recorded packets ...
Draining remaining packets ...
Time taken is 4022 cycles
====== Overall Traffic Statistics ======
====== Traffic class 0 ======
Packet latency average = 20.8623 (50 samples)
	minimum = 7 (50 samples)
	maximum = 57.92 (50 samples)
Network latency average = 20.8623 (50 samples)
	minimum = 7 (50 samples)
	maximum = 57.92 (50 samples)
Flit latency average = 20.8957 (50 samples)
	minimum = 7 (50 samples)
	maximum = 57.92 (50 samples)
Fragmentation average = 0 (50 samples)
	minimum = 0 (50 samples)
	maximum = 0 (50 samples)
Injected packet rate average = 0.00998792 (50 samples)
	minimum = 0.00649219 (50 samples)
	maximum = 0.0135529 (50 samples)
Accepted packet rate average = 0.00996803 (50 samples)
	minimum = 0.00681619 (50 samples)
	maximum = 0.0134426 (50 samples)
Injected flit rate average = 0.00998792 (50 samples)
	minimum = 0.00649219 (50 samples)
	maximum = 0.0135529 (50 samples)
Accepted flit rate average = 0.00996803 (50 samples)
	minimum = 0.00681619 (50 samples)
	maximum = 0.0134426 (50 samples)
Injected packet size average = 1 (50 samples)
Accepted packet size average = 1 (50 samples)
Hops average = 3.75989 (50 samples)
Total run time 4.64759
