BEGIN Configuration File: /tmp/tmprjhwwr54.cfg
topology = mesh;
k = 4;
n = 2;
routing_function = planar_adapt;
num_vcs = 4;
vc_buf_size = 4;
wait_for_tail_credit = 1;
vc_allocator = islip;
sw_allocator = islip;
alloc_iters = 1;
credit_delay = 2;
routing_delay = 1;
vc_alloc_delay = 1;
sw_alloc_delay = 1;
input_speedup = 2;
output_speedup = 1;
internal_speedup = 1.0;
traffic = hotspot;
packet_size = 1;
sim_type = latency;
injection_rate = 0.01;
warmup_periods = 3;
sample_period = 500;
sim_count = 50;
seed = 2;
link_failures = 1;
fail_seed = 303;

END Configuration File: /tmp/tmprjhwwr54.cfg
failure at node 9, channel 2 (1/1)
Class 0:
Packet latency average = 22.0645
	minimum = 7
	maximum = 37
Network latency average = 22.0645
	minimum = 7
	maximum = 37
Slowest packet = 20
Flit latency average = 22.0645
	minimum = 7
	maximum = 37
Slowest flit = 20
Fragmentation average = 0
	minimum = 0
	maximum = 0
Injected packet rate average = 0.008125
	minimum = 0 (at node 9)
	maximum = 0.014 (at node 5)
Accepted packet rate average = 0.00775
	minimum = 0 (at node 0)
	maximum = 0.124 (at node 15)
Injected flit rate average = 0.008125
	minimum = 0 (at node 9)
	maximum = 0.014 (at node 5)
Accepted flit rate average= 0.00775
	minimum = 0 (at node 0)
	maximum = 0.124 (at node 15)
Injected packet length average = 1
Accepted packet length average = 1
Total in-flight flits = 3 (0 measured)
latency change    = 1
throughput change = 1
Class 0:
Packet latency average = 21.903
	minimum = 7
	maximum = 42
Network latency average = 21.903
	minimum = 7
	maximum = 42
Slowest packet = 103
Flit latency average = 21.903
	minimum = 7
	maximum = 42
Slowest flit = 103
Fragmentation average = 0
	minimum = 0
	maximum = 0
Injected packet rate average = 0.008625
	minimum = 0.003 (at node 2)
	maximum = 0.015 (at node 13)
Accepted packet rate average = 0.008375
	minimum = 0 (at node 0)
	maximum = 0.134 (at node 15)
Injected flit rate average = 0.008625
	minimum = 0.003 (at node 2)
	maximum = 0.015 (at node 13)
Accepted flit rate average= 0.008375
	minimum = 0 (at node 0)
	maximum = 0.134 (at node 15)
Injected packet length average = 1
Accepted packet length average = 1
Total in-flight flits = 4 (0 measured)
latency change    = 0.00737484
throughput change = 0.0746269
Class 0:
Packet latency average = 23.8916
	minimum = 7
	maximum = 53
Network latency average = 23.8916
	minimum = 7
	maximum = 53
Slowest packet = 157
Flit latency average = 23.8916
	minimum = 7
	maximum = 53
Slowest flit = 157
Fragmentation average = 0
	minimum = 0
	maximum = 0
Injected packet rate average = 0.01
	minimum = 0.002 (at node 3)
	maximum = 0.022 (at node 13)
Accepted packet rate average = 0.010375
	minimum = 0 (at node 0)
	maximum = 0.166 (at node 15)
Injected flit rate average = 0.01
	minimum = 0.002 (at node 3)
	maximum = 0.022 (at node 13)
Accepted flit rate average= 0.010375
	minimum = 0 (at node 0)
	maximum = 0.166 (at node 15)
Injected packet length average = 1
Accepted packet length average = 1
Total in-flight flits = 1 (0 measured)
latency change    = 0.0832336
throughput change = 0.192771
Warmed up ...Time used is 1500 cycles
Class 0:
Packet latency average = 25.2326
	minimum = 7
	maximum = 49
Network latency average = 25.2326
	minimum = 7
	maximum = 49
Slowest packet = 257
Flit latency average = 25.3103
	minimum = 7
	maximum = 49
Slowest flit = 257
Fragmentation average = 0
	minimum = 0
	maximum = 0
Injected packet rate average = 0.01125
	minimum = 0.004 (at node 15)
	maximum = 0.022 (at node 10)
Accepted packet rate average = 0.010875
	minimum = 0 (at node 0)
	maximum = 0.174 (at node 15)
Injected flit rate average = 0.01125
	minimum = 0.004 (at node 15)
	maximum = 0.022 (at node 10)
Accepted flit rate average= 0.010875
	minimum = 0 (at node 0)
	maximum = 0.174 (at node 15)
Injected packet length average = 1
Accepted packet length average = 1
Total in-flight flits = 4 (4 measured)
latency change    = 0.0531453
throughput change = 0.045977
Class 0:
Packet latency average = 24.3072
	minimum = 7
	maximum = 49
Network latency average = 24.3072
	minimum = 7
	maximum = 49
Slowest packet = 257
Flit latency average = 24.3533
	minimum = 7
	maximum = 49
Slowest flit = 257
Fragmentation average = 0
	minimum = 0
	maximum = 0
Injected packet rate average = 0.0105
	minimum = 0.006 (at node 2)
	maximum = 0.015 (at node 3)
Accepted packet rate average = 0.0104375
	minimum = 0 (at node 0)
	maximum = 0.167 (at node 15)
Injected flit rate average = 0.0105
	minimum = 0.006 (at node 2)
	maximum = 0.015 (at node 3)
Accepted flit rate average= 0.0104375
	minimum = 0 (at node 0)
	maximum = 0.167 (at node 15)
Injected packet length average = 1
Accepted packet length average = 1
Total in-flight flits = 2 (2 measured)
latency change    = 0.0380681
throughput change = 0.0419162
Class 0:
Packet latency average = 23.3974
	minimum = 7
	maximum = 49
Network latency average = 23.3974
	minimum = 7
	maximum = 49
Slowest packet = 257
Flit latency average = 23.434
	minimum = 7
	maximum = 49
Slowest flit = 257
Fragmentation average = 0
	minimum = 0
	maximum = 0
Injected packet rate average = 0.00983333
	minimum = 0.00666667 (at node 1)
	maximum = 0.0153333 (at node 3)
Accepted packet rate average = 0.00979167
	minimum = 0 (at node 0)
	maximum = 0.156667 (at node 15)
Injected flit rate average = 0.00983333
	minimum = 0.00666667 (at node 1)
	maximum = 0.0153333 (at node 3)
Accepted flit rate average= 0.00979167
	minimum = 0 (at node 0)
	maximum = 0.156667 (at node 15)
Injected packet length average = 1
Accepted packet length average = 1
Total in-flight flits = 2 (2 measured)
latency change    = 0.0388843
throughput change = 0.0659574
Class 0:
Packet latency average = 23.475
	minimum = 7
	maximum = 49
Network latency average = 23.475
	minimum = 7
	maximum = 49
Slowest packet = 257
Flit latency average = 23.5016
	minimum = 7
	maximum = 49
Slowest flit = 257
Fragmentation average = 0
	minimum = 0
	maximum = 0
Injected packet rate average = 0.0101875
	minimum = 0.0065 (at node 8)
	maximum = 0.014 (at node 10)
Accepted packet rate average = 0.0100313
	minimum = 0 (at node 0)
	maximum = 0.1605 (at node 15)
Injected flit rate average = 0.0101875
	minimum = 0.0065 (at node 8)
	maximum = 0.014 (at node 10)
Accepted flit rate average= 0.0100313
	minimum = 0 (at node 0)
	maximum = 0.1605 (at node 15)
Injected packet length average = 1
Accepted packet length average = 1
Total in-flight flits = 6 (6 measured)
latency change    = 0.00330412
throughput change = 0.0238837
Class 0:
Packet latency average = 23.4387
	minimum = 7
	maximum = 49
Network latency average = 23.4387
	minimum = 7
	maximum = 49
Slowest packet = 257
Flit latency average = 23.4597
	minimum = 7
	maximum = 49
Slowest flit = 257
Fragmentation average = 0
	minimum = 0
	maximum = 0
Injected packet rate average = 0.010275
	minimum = 0.0076 (at node 1)
	maximum = 0.0136 (at node 12)
Accepted packet rate average = 0.010225
	minimum = 0 (at node 0)
	maximum = 0.1636 (at node 15)
Injected flit rate average = 0.010275
	minimum = 0.0076 (at node 1)
	maximum = 0.0136 (at node 12)
Accepted flit rate average= 0.010225
	minimum = 0 (at node 0)
	maximum = 0.1636 (at node 15)
Injected packet length average = 1
Accepted packet length average = 1
Total in-flight flits = 3 (3 measured)
latency change    = 0.00154763
throughput change = 0.0189487
Class 0:
Packet latency average = 23.3704
	minimum = 7
	maximum = 49
Network latency average = 23.3704
	minimum = 7
	maximum = 49
Slowest packet = 257
Flit latency average = 23.3881
	minimum = 7
	maximum = 49
Slowest flit = 257
Fragmentation average = 0
	minimum = 0
	maximum = 0
Injected packet rate average = 0.0103125
	minimum = 0.00766667 (at node 1)
	maximum = 0.0136667 (at node 10)
Accepted packet rate average = 0.0101458
	minimum = 0 (at node 0)
	maximum = 0.162333 (at node 15)
Injected flit rate average = 0.0103125
	minimum = 0.00766667 (at node 1)
	maximum = 0.0136667 (at node 10)
Accepted flit rate average= 0.0101458
	minimum = 0 (at node 0)
	maximum = 0.162333 (at node 15)
Injected packet length average = 1
Accepted packet length average = 1
Total in-flight flits = 9 (9 measured)
latency change    = 0.00292486
throughput change = 0.00780287
Draining all recorded packets ...
Draining remaining packets ...
Time taken is 4569 cycles
Class 0:
Packet latency average = 24.6324
	minimum = 7
	maximum = 48
Network latency average = 24.6324
	minimum = 7
	maximum = 48
Slowest packet = 747
Flit latency average = 24.6324
	minimum = 7
	maximum = 48
Slowest flit = 747
Fragmentation average = 0
	minimum = 0
	maximum = 0
Injected packet rate average = 0.009125
	minimum = 0.004 (at node 13)
	maximum = 0.026 (at node 5)
Accepted packet rate average = 0.0085
	minimum = 0 (at node 0)
	maximum = 0.136 (at node 15)
Injected flit rate average = 0.009125
	minimum = 0.004 (at node 13)
	maximum = 0.026 (at node 5)
Accepted flit rate average= 0.0085
	minimum = 0 (at node 0)
	maximum = 0.136 (at node 15)
Injected packet length average = 1
Accepted packet length average = 1
Total in-flight flits = 5 (0 measured)
latency change    = 1
throughput change = 1
Class 0:
Packet latency average = 25.425
	minimum = 7
	maximum = 60
Network latency average = 25.425
	minimum = 7
	maximum = 60
Slowest packet = 795
Flit latency average = 25.425
	minimum = 7
	maximum = 60
Slowest flit = 795
Fragmentation average = 0
	minimum = 0
	maximum = 0
Injected packet rate average = 0.0100625
	minimum = 0.005 (at node 2)
	maximum = 0.017 (at node 5)
Accepted packet rate average = 0.01
	minimum = 0 (at node 0)
	maximum = 0.16 (at node 15)
Injected flit rate average = 0.0100625
	minimum = 0.005 (at node 2)
	maximum = 0.017 (at node 5)
Accepted flit rate average= 0.01
	minimum = 0 (at node 0)
	maximum = 0.16 (at node 15)
Injected packet length average = 1
Accepted packet length average = 1
Total in-flight flits = 1 (0 measured)
latency change    = 0.0311759
throughput change = 0.15
Class 0:
Packet latency average = 23.4459
	minimum = 7
	maximum = 45
Network latency average = 23.4459
	minimum = 7
	maximum = 45
Slowest packet = 924
Flit latency average = 23.4459
	minimum = 7
	maximum = 45
Slowest flit = 924
Fragmentation average = 0
	minimum = 0
	maximum = 0
Injected packet rate average = 0.009875
	minimum = 0.004 (at node 1)
	maximum = 0.02 (at node 9)
Accepted packet rate average = 0.00925
	minimum = 0 (at node 0)
	maximum = 0.148 (at node 15)
Injected flit rate average = 0.009875
	minimum = 0.004 (at node 1)
	maximum = 0.02 (at node 9)
Accepted flit rate average= 0.00925
	minimum = 0 (at node 0)
	maximum = 0.148 (at node 15)
Injected packet length average = 1
Accepted packet length average = 1
Total in-flight flits = 6 (0 measured)
latency change    = 0.0844092
throughput change = 0.0810811
Warmed up ...Time used is 1500 cycles
Class 0:
Packet latency average = 23.3049
	minimum = 7
	maximum = 43
Network latency average = 23.3049
	minimum = 7
	maximum = 43
Slowest packet = 1016
Flit latency average = 23.2273
	minimum = 7
	maximum = 43
Slowest flit = 1016
Fragmentation average = 0
	minimum = 0
	maximum = 0
Injected packet rate average = 0.010625
	minimum = 0.004 (at node 6)
	maximum = 0.016 (at node 5)
Accepted packet rate average = 0.011
	minimum = 0 (at node 0)
	maximum = 0.176 (at node 15)
Injected flit rate average = 0.010625
	minimum = 0.004 (at node 6)
	maximum = 0.016 (at node 5)
Accepted flit rate average= 0.011
	minimum = 0 (at node 0)
	maximum = 0.176 (at node 15)
Injected packet length average = 1
Accepted packet length average = 1
Total in-flight flits = 3 (3 measured)
latency change    = 0.00605315
throughput change = 0.159091
Class 0:
Packet latency average = 23.4431
	minimum = 7
	maximum = 50
Network latency average = 23.4431
	minimum = 7
	maximum = 50
Slowest packet = 1121
Flit latency average = 23.3988
	minimum = 7
	maximum = 50
Slowest flit = 1121
Fragmentation average = 0
	minimum = 0
	maximum = 0
Injected packet rate average = 0.01075
	minimum = 0.007 (at node 6)
	maximum = 0.015 (at node 5)
Accepted packet rate average = 0.0108125
	minimum = 0 (at node 0)
	maximum = 0.173 (at node 15)
Injected flit rate average = 0.01075
	minimum = 0.007 (at node 6)
	maximum = 0.015 (at node 5)
Accepted flit rate average= 0.0108125
	minimum = 0 (at node 0)
	maximum = 0.173 (at node 15)
Injected packet length average = 1
Accepted packet length average = 1
Total in-flight flits = 5 (5 measured)
latency change    = 0.00589665
throughput change = 0.017341
Class 0:
Packet latency average = 24.0397
	minimum = 7
	maximum = 89
Network latency average = 24.0397
	minimum = 7
	maximum = 89
Slowest packet = 1113
Flit latency average = 23.9961
	minimum = 7
	maximum = 89
Slowest flit = 1113
Fragmentation average = 0
	minimum = 0
	maximum = 0
Injected packet rate average = 0.010625
	minimum = 0.00866667 (at node 2)
	maximum = 0.0153333 (at node 5)
Accepted packet rate average = 0.01075
	minimum = 0 (at node 0)
	maximum = 0.172 (at node 15)
Injected flit rate average = 0.010625
	minimum = 0.00866667 (at node 2)
	maximum = 0.0153333 (at node 5)
Accepted flit rate average= 0.01075
	minimum = 0 (at node 0)
	maximum = 0.172 (at node 15)
Injected packet length average = 1
Accepted packet length average = 1
Total in-flight flits = 3 (3 measured)
latency change    = 0.024816
throughput change = 0.00581395
Class 0:
Packet latency average = 24.0334
	minimum = 7
	maximum = 89
Network latency average = 24.0334
	minimum = 7
	maximum = 89
Slowest packet = 1113
Flit latency average = 24
	minimum = 7
	maximum = 89
Slowest flit = 1113
Fragmentation average = 0
	minimum = 0
	maximum = 0
Injected packet rate average = 0.0103125
	minimum = 0.008 (at node 6)
	maximum = 0.015 (at node 3)
Accepted packet rate average = 0.0104688
	minimum = 0 (at node 0)
	maximum = 0.1675 (at node 15)
Injected flit rate average = 0.0103125
	minimum = 0.008 (at node 6)
	maximum = 0.015 (at node 3)
Accepted flit rate average= 0.0104688
	minimum = 0 (at node 0)
	maximum = 0.1675 (at node 15)
Injected packet length average = 1
Accepted packet length average = 1
Total in-flight flits = 1 (1 measured)
latency change    = 0.000259967
throughput change = 0.0268657
Draining all recorded packets ...
Draining remaining packets ...
Time taken is 3508 cycles
Class 0:
Packet latency average = 24.88
	minimum = 7
	maximum = 53
Network latency average = 24.88
	minimum = 7
	maximum = 53
Slowest packet = 1337
Flit latency average = 24.88
	minimum = 7
	maximum = 53
Slowest flit = 1337
Fragmentation average = 0
	minimum = 0
	maximum = 0
Injected packet rate average = 0.00975
	minimum = 0.002 (at node 11)
	maximum = 0.014 (at node 1)
Accepted packet rate average = 0.009375
	minimum = 0 (at node 0)
	maximum = 0.15 (at node 15)
Injected flit rate average = 0.00975
	minimum = 0.002 (at node 11)
	maximum = 0.014 (at node 1)
Accepted flit rate average= 0.009375
	minimum = 0 (at node 0)
	maximum = 0.15 (at node 15)
Injected packet length average = 1
Accepted packet length average = 1
Total in-flight flits = 3 (0 measured)
latency change    = 1
throughput change = 1
Class 0:
Packet latency average = 23.3152
	minimum = 7
	maximum = 53
Network latency average = 23.3152
	minimum = 7
	maximum = 53
Slowest packet = 1337
Flit latency average = 23.3152
	minimum = 7
	maximum = 53
Slowest flit = 1337
Fragmentation average = 0
	minimum = 0
	maximum = 0
Injected packet rate average = 0.0105625
	minimum = 0.006 (at node 5)
	maximum = 0.015 (at node 15)
Accepted packet rate average = 0.0103125
	minimum = 0 (at node 0)
	maximum = 0.165 (at node 15)
Injected flit rate average = 0.0105625
	minimum = 0.006 (at node 5)
	maximum = 0.015 (at node 15)
Accepted flit rate average= 0.0103125
	minimum = 0 (at node 0)
	maximum = 0.165 (at node 15)
Injected packet length average = 1
Accepted packet length average = 1
Total in-flight flits = 4 (0 measured)
latency change    = 0.0671172
throughput change = 0.0909091
Class 0:
Packet latency average = 26.0543
	minimum = 7
	maximum = 73
Network latency average = 26.0543
	minimum = 7
	maximum = 73
Slowest packet = 1494
Flit latency average = 26.0543
	minimum = 7
	maximum = 73
Slowest flit = 1494
Fragmentation average = 0
	minimum = 0
	maximum = 0
Injected packet rate average = 0.0115
	minimum = 0 (at node 7)
	maximum = 0.022 (at node 0)
Accepted packet rate average = 0.0115
	minimum = 0 (at node 0)
	maximum = 0.184 (at node 15)
Injected flit rate average = 0.0115
	minimum = 0 (at node 7)
	maximum = 0.022 (at node 0)
Accepted flit rate average= 0.0115
	minimum = 0 (at node 0)
	maximum = 0.184 (at node 15)
Injected packet length average = 1
Accepted packet length average = 1
Total in-flight flits = 4 (0 measured)
latency change    = 0.105134
throughput change = 0.103261
Warmed up ...Time used is 1500 cycles
Class 0:
Packet latency average = 27.9111
	minimum = 7
	maximum = 80
Network latency average = 27.9111
	minimum = 7
	maximum = 80
Slowest packet = 1606
Flit latency average = 28.0319
	minimum = 7
	maximum = 80
Slowest flit = 1606
Fragmentation average = 0
	minimum = 0
	maximum = 0
Injected packet rate average = 0.01175
	minimum = 0.004 (at node 1)
	maximum = 0.022 (at node 0)
Accepted packet rate average = 0.01175
	minimum = 0 (at node 0)
	maximum = 0.188 (at node 15)
Injected flit rate average = 0.01175
	minimum = 0.004 (at node 1)
	maximum = 0.022 (at node 0)
Accepted flit rate average= 0.01175
	minimum = 0 (at node 0)
	maximum = 0.188 (at node 15)
Injected packet length average = 1
Accepted packet length average = 1
Total in-flight flits = 4 (4 measured)
latency change    = 0.0665242
throughput change = 0.0212766
Class 0:
Packet latency average = 25.2035
	minimum = 7
	maximum = 80
Network latency average = 25.2035
	minimum = 7
	maximum = 80
Slowest packet = 1606
Flit latency average = 25.3295
	minimum = 7
	maximum = 80
Slowest flit = 1606
Fragmentation average = 0
	minimum = 0
	maximum = 0
Injected packet rate average = 0.0110625
	minimum = 0.005 (at node 3)
	maximum = 0.019 (at node 14)
Accepted packet rate average = 0.011
	minimum = 0 (at node 0)
	maximum = 0.176 (at node 15)
Injected flit rate average = 0.0110625
	minimum = 0.005 (at node 3)
	maximum = 0.019 (at node 14)
Accepted flit rate average= 0.011
	minimum = 0 (at node 0)
	maximum = 0.176 (at node 15)
Injected packet length average = 1
Accepted packet length average = 1
Total in-flight flits = 5 (5 measured)
latency change    = 0.10743
throughput change = 0.0681818
Class 0:
Packet latency average = 25.3745
	minimum = 7
	maximum = 80
Network latency average = 25.3745
	minimum = 7
	maximum = 80
Slowest packet = 1606
Flit latency average = 25.4539
	minimum = 7
	maximum = 80
Slowest flit = 1606
Fragmentation average = 0
	minimum = 0
	maximum = 0
Injected packet rate average = 0.0112917
	minimum = 0.00466667 (at node 1)
	maximum = 0.018 (at node 6)
Accepted packet rate average = 0.0112917
	minimum = 0 (at node 0)
	maximum = 0.180667 (at node 15)
Injected flit rate average = 0.0112917
	minimum = 0.00466667 (at node 1)
	maximum = 0.018 (at node 6)
Accepted flit rate average= 0.0112917
	minimum = 0 (at node 0)
	maximum = 0.180667 (at node 15)
Injected packet length average = 1
Accepted packet length average = 1
Total in-flight flits = 4 (4 measured)
latency change    = 0.00674075
throughput change = 0.0258303
Class 0:
Packet latency average = 24.8399
	minimum = 7
	maximum = 80
Network latency average = 24.8399
	minimum = 7
	maximum = 80
Slowest packet = 1606
Flit latency average = 24.9056
	minimum = 7
	maximum = 80
Slowest flit = 1606
Fragmentation average = 0
	minimum = 0
	maximum = 0
Injected packet rate average = 0.0112812
	minimum = 0.0065 (at node 9)
	maximum = 0.0155 (at node 6)
Accepted packet rate average = 0.01125
	minimum = 0 (at node 0)
	maximum = 0.18 (at node 15)
Injected flit rate average = 0.0112812
	minimum = 0.0065 (at node 9)
	maximum = 0.0155 (at node 6)
Accepted flit rate average= 0.01125
	minimum = 0 (at node 0)
	maximum = 0.18 (at node 15)
Injected packet length average = 1
Accepted packet length average = 1
Total in-flight flits = 5 (5 measured)
latency change    = 0.0215236
throughput change = 0.0037037
Class 0:
Packet latency average = 25.0475
	minimum = 7
	maximum = 80
Network latency average = 25.0475
	minimum = 7
	maximum = 80
Slowest packet = 1606
Flit latency average = 25.0987
	minimum = 7
	maximum = 80
Slowest flit = 1606
Fragmentation average = 0
	minimum = 0
	maximum = 0
Injected packet rate average = 0.011075
	minimum = 0.0056 (at node 9)
	maximum = 0.0144 (at node 6)
Accepted packet rate average = 0.01115
	minimum = 0 (at node 0)
	maximum = 0.1784 (at node 15)
Injected flit rate average = 0.011075
	minimum = 0.0056 (at node 9)
	maximum = 0.0144 (at node 6)
Accepted flit rate average= 0.01115
	minimum = 0 (at node 0)
	maximum = 0.1784 (at node 15)
Injected packet length average = 1
Accepted packet length average = 1
Total in-flight flits = 1 (1 measured)
latency change    = 0.00828919
throughput change = 0.00896861
Draining all recorded packets ...
Draining remaining packets ...
Time taken is 4060 cycles
Class 0:
Packet latency average = 23.1111
	minimum = 7
	maximum = 45
Network latency average = 23.1111
	minimum = 7
	maximum = 45
Slowest packet = 2005
Flit latency average = 23.1111
	minimum = 7
	maximum = 45
Slowest flit = 2005
Fragmentation average = 0
	minimum = 0
	maximum = 0
Injected packet rate average = 0.00925
	minimum = 0.002 (at node 10)
	maximum = 0.014 (at node 6)
Accepted packet rate average = 0.009
	minimum = 0 (at node 0)
	maximum = 0.144 (at node 15)
Injected flit rate average = 0.00925
	minimum = 0.002 (at node 10)
	maximum = 0.014 (at node 6)
Accepted flit rate average= 0.009
	minimum = 0 (at node 0)
	maximum = 0.144 (at node 15)
Injected packet length average = 1
Accepted packet length average = 1
Total in-flight flits = 2 (0 measured)
latency change    = 1
throughput change = 1
Class 0:
Packet latency average = 24.0979
	minimum = 7
	maximum = 50
Network latency average = 24.0979
	minimum = 7
	maximum = 50
Slowest packet = 2113
Flit latency average = 24.0979
	minimum = 7
	maximum = 50
Slowest flit = 2113
Fragmentation average = 0
	minimum = 0
	maximum = 0
Injected packet rate average = 0.0091875
	minimum = 0.003 (at node 10)
	maximum = 0.014 (at node 0)
Accepted packet rate average = 0.0089375
	minimum = 0 (at node 0)
	maximum = 0.143 (at node 15)
Injected flit rate average = 0.0091875
	minimum = 0.003 (at node 10)
	maximum = 0.014 (at node 0)
Accepted flit rate average= 0.0089375
	minimum = 0 (at node 0)
	maximum = 0.143 (at node 15)
Injected packet length average = 1
Accepted packet length average = 1
Total in-flight flits = 4 (0 measured)
latency change    = 0.0409492
throughput change = 0.00699301
Class 0:
Packet latency average = 23.1087
	minimum = 7
	maximum = 54
Network latency average = 23.1087
	minimum = 7
	maximum = 54
Slowest packet = 2161
Flit latency average = 23.1087
	minimum = 7
	maximum = 54
Slowest flit = 2161
Fragmentation average = 0
	minimum = 0
	maximum = 0
Injected packet rate average = 0.01125
	minimum = 0.004 (at node 6)
	maximum = 0.022 (at node 14)
Accepted packet rate average = 0.0115
	minimum = 0 (at node 0)
	maximum = 0.184 (at node 15)
Injected flit rate average = 0.01125
	minimum = 0.004 (at node 6)
	maximum = 0.022 (at node 14)
Accepted flit rate average= 0.0115
	minimum = 0 (at node 0)
	maximum = 0.184 (at node 15)
Injected packet length average = 1
Accepted packet length average = 1
Total in-flight flits = 2 (0 measured)
latency change    = 0.0428067
throughput change = 0.222826
Warmed up ...Time used is 1500 cycles
Class 0:
Packet latency average = 24.4865
	minimum = 7
	maximum = 44
Network latency average = 24.4865
	minimum = 7
	maximum = 44
Slowest packet = 2291
Flit latency average = 24.4868
	minimum = 7
	maximum = 44
Slowest flit = 2291
Fragmentation average = 0
	minimum = 0
	maximum = 0
Injected packet rate average = 0.009625
	minimum = 0.004 (at node 8)
	maximum = 0.016 (at node 4)
Accepted packet rate average = 0.0095
	minimum = 0 (at node 0)
	maximum = 0.152 (at node 15)
Injected flit rate average = 0.009625
	minimum = 0.004 (at node 8)
	maximum = 0.016 (at node 4)
Accepted flit rate average= 0.0095
	minimum = 0 (at node 0)
	maximum = 0.152 (at node 15)
Injected packet length average = 1
Accepted packet length average = 1
Total in-flight flits = 3 (3 measured)
latency change    = 0.0562674
throughput change = 0.210526
Class 0:
Packet latency average = 24.085
	minimum = 7
	maximum = 47
Network latency average = 24.085
	minimum = 7
	maximum = 47
Slowest packet = 2358
Flit latency average = 24.0903
	minimum = 7
	maximum = 47
Slowest flit = 2358
Fragmentation average = 0
	minimum = 0
	maximum = 0
Injected packet rate average = 0.009625
	minimum = 0.005 (at node 3)
	maximum = 0.015 (at node 5)
Accepted packet rate average = 0.0096875
	minimum = 0 (at node 0)
	maximum = 0.155 (at node 15)
Injected flit rate average = 0.009625
	minimum = 0.005 (at node 3)
	maximum = 0.015 (at node 5)
Accepted flit rate average= 0.0096875
	minimum = 0 (at node 0)
	maximum = 0.155 (at node 15)
Injected packet length average = 1
Accepted packet length average = 1
Total in-flight flits = 1 (1 measured)
latency change    = 0.0166709
throughput change = 0.0193548
Class 0:
Packet latency average = 23.6826
	minimum = 7
	maximum = 50
Network latency average = 23.6826
	minimum = 7
	maximum = 50
Slowest packet = 2431
Flit latency average = 23.6897
	minimum = 7
	maximum = 50
Slowest flit = 2431
Fragmentation average = 0
	minimum = 0
	maximum = 0
Injected packet rate average = 0.00970833
	minimum = 0.006 (at node 3)
	maximum = 0.0126667 (at node 5)
Accepted packet rate average = 0.00966667
	minimum = 0 (at node 0)
	maximum = 0.154667 (at node 15)
Injected flit rate average = 0.00970833
	minimum = 0.006 (at node 3)
	maximum = 0.0126667 (at node 5)
Accepted flit rate average= 0.00966667
	minimum = 0 (at node 0)
	maximum = 0.154667 (at node 15)
Injected packet length average = 1
Accepted packet length average = 1
Total in-flight flits = 3 (3 measured)
latency change    = 0.0169896
throughput change = 0.00215517
Class 0:
Packet latency average = 24.2233
	minimum = 7
	maximum = 50
Network latency average = 24.2233
	minimum = 7
	maximum = 50
Slowest packet = 2431
Flit latency average = 24.225
	minimum = 7
	maximum = 50
Slowest flit = 2431
Fragmentation average = 0
	minimum = 0
	maximum = 0
Injected packet rate average = 0.0101563
	minimum = 0.0065 (at node 3)
	maximum = 0.012 (at node 1)
Accepted packet rate average = 0.01
	minimum = 0 (at node 0)
	maximum = 0.16 (at node 15)
Injected flit rate average = 0.0101563
	minimum = 0.0065 (at node 3)
	maximum = 0.012 (at node 1)
Accepted flit rate average= 0.01
	minimum = 0 (at node 0)
	maximum = 0.16 (at node 15)
Injected packet length average = 1
Accepted packet length average = 1
Total in-flight flits = 7 (7 measured)
latency change    = 0.0223199
throughput change = 0.0333333
Draining all recorded packets ...
Draining remaining packets ...
Time taken is 3542 cycles
Class 0:
Packet latency average = 24.6429
	minimum = 7
	maximum = 61
Network latency average = 24.6429
	minimum = 7
	maximum = 61
Slowest packet = 2611
Flit latency average = 24.6429
	minimum = 7
	maximum = 61
Slowest flit = 2611
Fragmentation average = 0
	minimum = 0
	maximum = 0
Injected packet rate average = 0.010625
	minimum = 0.004 (at node 4)
	maximum = 0.018 (at node 11)
Accepted packet rate average = 0.0105
	minimum = 0 (at node 0)
	maximum = 0.168 (at node 15)
Injected flit rate average = 0.010625
	minimum = 0.004 (at node 4)
	maximum = 0.018 (at node 11)
Accepted flit rate average= 0.0105
	minimum = 0 (at node 0)
	maximum = 0.168 (at node 15)
Injected packet length average = 1
Accepted packet length average = 1
Total in-flight flits = 1 (0 measured)
latency change    = 1
throughput change = 1
Class 0:
Packet latency average = 24.3171
	minimum = 7
	maximum = 61
Network latency average = 24.3171
	minimum = 7
	maximum = 61
Slowest packet = 2611
Flit latency average = 24.3171
	minimum = 7
	maximum = 61
Slowest flit = 2611
Fragmentation average = 0
	minimum = 0
	maximum = 0
Injected packet rate average = 0.0104375
	minimum = 0.005 (at node 7)
	maximum = 0.016 (at node 3)
Accepted packet rate average = 0.01025
	minimum = 0 (at node 0)
	maximum = 0.164 (at node 15)
Injected flit rate average = 0.0104375
	minimum = 0.005 (at node 7)
	maximum = 0.016 (at node 3)
Accepted flit rate average= 0.01025
	minimum = 0 (at node 0)
	maximum = 0.164 (at node 15)
Injected packet length average = 1
Accepted packet length average = 1
Total in-flight flits = 3 (0 measured)
latency change    = 0.0133973
throughput change = 0.0243902
Class 0:
Packet latency average = 24.9062
	minimum = 7
	maximum = 40
Network latency average = 24.9062
	minimum = 7
	maximum = 40
Slowest packet = 2730
Flit latency average = 24.9062
	minimum = 7
	maximum = 40
Slowest flit = 2730
Fragmentation average = 0
	minimum = 0
	maximum = 0
Injected packet rate average = 0.0085
	minimum = 0 (at node 7)
	maximum = 0.016 (at node 0)
Accepted packet rate average = 0.008
	minimum = 0 (at node 0)
	maximum = 0.128 (at node 15)
Injected flit rate average = 0.0085
	minimum = 0 (at node 7)
	maximum = 0.016 (at node 0)
Accepted flit rate average= 0.008
	minimum = 0 (at node 0)
	maximum = 0.128 (at node 15)
Injected packet length average = 1
Accepted packet length average = 1
Total in-flight flits = 7 (0 measured)
latency change    = 0.0236558
throughput change = 0.28125
Warmed up ...Time used is 1500 cycles
Class 0:
Packet latency average = 21.75
	minimum = 7
	maximum = 38
Network latency average = 21.75
	minimum = 7
	maximum = 38
Slowest packet = 2847
Flit latency average = 22.3733
	minimum = 7
	maximum = 38
Slowest flit = 2847
Fragmentation average = 0
	minimum = 0
	maximum = 0
Injected packet rate average = 0.00875
	minimum = 0.002 (at node 8)
	maximum = 0.018 (at node 6)
Accepted packet rate average = 0.009375
	minimum = 0 (at node 0)
	maximum = 0.15 (at node 15)
Injected flit rate average = 0.00875
	minimum = 0.002 (at node 8)
	maximum = 0.018 (at node 6)
Accepted flit rate average= 0.009375
	minimum = 0 (at node 0)
	maximum = 0.15 (at node 15)
Injected packet length average = 1
Accepted packet length average = 1
Total in-flight flits = 2 (2 measured)
latency change    = 0.145115
throughput change = 0.146667
Class 0:
Packet latency average = 22.9028
	minimum = 7
	maximum = 49
Network latency average = 22.9028
	minimum = 7
	maximum = 49
Slowest packet = 2885
Flit latency average = 23.1589
	minimum = 7
	maximum = 49
Slowest flit = 2885
Fragmentation average = 0
	minimum = 0
	maximum = 0
Injected packet rate average = 0.00925
	minimum = 0.004 (at node 3)
	maximum = 0.013 (at node 4)
Accepted packet rate average = 0.0094375
	minimum = 0 (at node 0)
	maximum = 0.151 (at node 15)
Injected flit rate average = 0.00925
	minimum = 0.004 (at node 3)
	maximum = 0.013 (at node 4)
Accepted flit rate average= 0.0094375
	minimum = 0 (at node 0)
	maximum = 0.151 (at node 15)
Injected packet length average = 1
Accepted packet length average = 1
Total in-flight flits = 4 (4 measured)
latency change    = 0.0503335
throughput change = 0.00662252
Class 0:
Packet latency average = 23.4333
	minimum = 7
	maximum = 49
Network latency average = 23.4333
	minimum = 7
	maximum = 49
Slowest packet = 2885
Flit latency average = 23.5945
	minimum = 7
	maximum = 49
Slowest flit = 2885
Fragmentation average = 0
	minimum = 0
	maximum = 0
Injected packet rate average = 0.009
	minimum = 0.006 (at node 3)
	maximum = 0.012 (at node 2)
Accepted packet rate average = 0.00904167
	minimum = 0 (at node 0)
	maximum = 0.144667 (at node 15)
Injected flit rate average = 0.009
	minimum = 0.006 (at node 3)
	maximum = 0.012 (at node 2)
Accepted flit rate average= 0.00904167
	minimum = 0 (at node 0)
	maximum = 0.144667 (at node 15)
Injected packet length average = 1
Accepted packet length average = 1
Total in-flight flits = 6 (6 measured)
latency change    = 0.0226411
throughput change = 0.0437788
Class 0:
Packet latency average = 23.3673
	minimum = 7
	maximum = 49
Network latency average = 23.3673
	minimum = 7
	maximum = 49
Slowest packet = 2885
Flit latency average = 23.4929
	minimum = 7
	maximum = 49
Slowest flit = 2885
Fragmentation average = 0
	minimum = 0
	maximum = 0
Injected packet rate average = 0.00875
	minimum = 0.006 (at node 3)
	maximum = 0.0115 (at node 2)
Accepted packet rate average = 0.0088125
	minimum = 0 (at node 0)
	maximum = 0.141 (at node 15)
Injected flit rate average = 0.00875
	minimum = 0.006 (at node 3)
	maximum = 0.0115 (at node 2)
Accepted flit rate average= 0.0088125
	minimum = 0 (at node 0)
	maximum = 0.141 (at node 15)
Injected packet length average = 1
Accepted packet length average = 1
Total in-flight flits = 5 (5 measured)
latency change    = 0.00282706
throughput change = 0.0260047
Class 0:
Packet latency average = 22.8911
	minimum = 7
	maximum = 49
Network latency average = 22.8911
	minimum = 7
	maximum = 49
Slowest packet = 2885
Flit latency average = 22.9973
	minimum = 7
	maximum = 49
Slowest flit = 2885
Fragmentation average = 0
	minimum = 0
	maximum = 0
Injected packet rate average = 0.009125
	minimum = 0.006 (at node 10)
	maximum = 0.0132 (at node 12)
Accepted packet rate average = 0.009125
	minimum = 0 (at node 0)
	maximum = 0.146 (at node 15)
Injected flit rate average = 0.009125
	minimum = 0.006 (at node 10)
	maximum = 0.0132 (at node 12)
Accepted flit rate average= 0.009125
	minimum = 0 (at node 0)
	maximum = 0.146 (at node 15)
Injected packet length average = 1
Accepted packet length average = 1
Total in-flight flits = 7 (7 measured)
latency change    = 0.0208034
throughput change = 0.0342466
Draining all recorded packets ...
Draining remaining packets ...
Time taken is 4060 cycles
Class 0:
Packet latency average = 22.8056
	minimum = 7
	maximum = 49
Network latency average = 22.8056
	minimum = 7
	maximum = 49
Slowest packet = 3186
Flit latency average = 22.8056
	minimum = 7
	maximum = 49
Slowest flit = 3186
Fragmentation average = 0
	minimum = 0
	maximum = 0
Injected packet rate average = 0.00925
	minimum = 0.002 (at node 3)
	maximum = 0.016 (at node 14)
Accepted packet rate average = 0.009
	minimum = 0 (at node 0)
	maximum = 0.144 (at node 15)
Injected flit rate average = 0.00925
	minimum = 0.002 (at node 3)
	maximum = 0.016 (at node 14)
Accepted flit rate average= 0.009
	minimum = 0 (at node 0)
	maximum = 0.144 (at node 15)
Injected packet length average = 1
Accepted packet length average = 1
Total in-flight flits = 2 (0 measured)
latency change    = 1
throughput change = 1
Class 0:
Packet latency average = 23.6347
	minimum = 7
	maximum = 52
Network latency average = 23.6347
	minimum = 7
	maximum = 52
Slowest packet = 3251
Flit latency average = 23.6347
	minimum = 7
	maximum = 52
Slowest flit = 3251
Fragmentation average = 0
	minimum = 0
	maximum = 0
Injected packet rate average = 0.010625
	minimum = 0.007 (at node 3)
	maximum = 0.016 (at node 15)
Accepted packet rate average = 0.0104375
	minimum = 0 (at node 0)
	maximum = 0.167 (at node 15)
Injected flit rate average = 0.010625
	minimum = 0.007 (at node 3)
	maximum = 0.016 (at node 15)
Accepted flit rate average= 0.0104375
	minimum = 0 (at node 0)
	maximum = 0.167 (at node 15)
Injected packet length average = 1
Accepted packet length average = 1
Total in-flight flits = 3 (0 measured)
latency change    = 0.0350829
throughput change = 0.137725
Class 0:
Packet latency average = 24.4118
	minimum = 7
	maximum = 57
Network latency average = 24.4118
	minimum = 7
	maximum = 57
Slowest packet = 3354
Flit latency average = 24.4118
	minimum = 7
	maximum = 57
Slowest flit = 3354
Fragmentation average = 0
	minimum = 0
	maximum = 0
Injected packet rate average = 0.010625
	minimum = 0.004 (at node 2)
	maximum = 0.022 (at node 3)
Accepted packet rate average = 0.010625
	minimum = 0 (at node 0)
	maximum = 0.17 (at node 15)
Injected flit rate average = 0.010625
	minimum = 0.004 (at node 2)
	maximum = 0.022 (at node 3)
Accepted flit rate average= 0.010625
	minimum = 0 (at node 0)
	maximum = 0.17 (at node 15)
Injected packet length average = 1
Accepted packet length average = 1
Total in-flight flits = 3 (0 measured)
latency change    = 0.0318303
throughput change = 0.0176471
Warmed up ...Time used is 1500 cycles
Class 0:
Packet latency average = 22.7662
	minimum = 7
	maximum = 50
Network latency average = 22.7662
	minimum = 7
	maximum = 50
Slowest packet = 3476
Flit latency average = 22.925
	minimum = 7
	maximum = 50
Slowest flit = 3476
Fragmentation average = 0
	minimum = 0
	maximum = 0
Injected packet rate average = 0.010625
	minimum = 0.004 (at node 14)
	maximum = 0.018 (at node 7)
Accepted packet rate average = 0.01
	minimum = 0 (at node 0)
	maximum = 0.16 (at node 15)
Injected flit rate average = 0.010625
	minimum = 0.004 (at node 14)
	maximum = 0.018 (at node 7)
Accepted flit rate average= 0.01
	minimum = 0 (at node 0)
	maximum = 0.16 (at node 15)
Injected packet length average = 1
Accepted packet length average = 1
Total in-flight flits = 8 (8 measured)
latency change    = 0.0722795
throughput change = 0.0625
Class 0:
Packet latency average = 24.4125
	minimum = 7
	maximum = 61
Network latency average = 24.4125
	minimum = 7
	maximum = 61
Slowest packet = 3569
Flit latency average = 24.4601
	minimum = 7
	maximum = 61
Slowest flit = 3569
Fragmentation average = 0
	minimum = 0
	maximum = 0
Injected packet rate average = 0.0101875
	minimum = 0.005 (at node 12)
	maximum = 0.015 (at node 13)
Accepted packet rate average = 0.0101875
	minimum = 0 (at node 0)
	maximum = 0.163 (at node 15)
Injected flit rate average = 0.0101875
	minimum = 0.005 (at node 12)
	maximum = 0.015 (at node 13)
Accepted flit rate average= 0.0101875
	minimum = 0 (at node 0)
	maximum = 0.163 (at node 15)
Injected packet length average = 1
Accepted packet length average = 1
Total in-flight flits = 3 (3 measured)
latency change    = 0.0674354
throughput change = 0.0184049
Class 0:
Packet latency average = 24.2125
	minimum = 7
	maximum = 61
Network latency average = 24.2125
	minimum = 7
	maximum = 61
Slowest packet = 3569
Flit latency average = 24.2469
	minimum = 7
	maximum = 61
Slowest flit = 3569
Fragmentation average = 0
	minimum = 0
	maximum = 0
Injected packet rate average = 0.0101667
	minimum = 0.00533333 (at node 10)
	maximum = 0.0153333 (at node 13)
Accepted packet rate average = 0.010125
	minimum = 0 (at node 0)
	maximum = 0.162 (at node 15)
Injected flit rate average = 0.0101667
	minimum = 0.00533333 (at node 10)
	maximum = 0.0153333 (at node 13)
Accepted flit rate average= 0.010125
	minimum = 0 (at node 0)
	maximum = 0.162 (at node 15)
Injected packet length average = 1
Accepted packet length average = 1
Total in-flight flits = 4 (4 measured)
latency change    = 0.0082602
throughput change = 0.00617284
Class 0:
Packet latency average = 23.9479
	minimum = 7
	maximum = 61
Network latency average = 23.9479
	minimum = 7
	maximum = 61
Slowest packet = 3569
Flit latency average = 23.9757
	minimum = 7
	maximum = 61
Slowest flit = 3569
Fragmentation average = 0
	minimum = 0
	maximum = 0
Injected packet rate average = 0.0101875
	minimum = 0.007 (at node 2)
	maximum = 0.0155 (at node 13)
Accepted packet rate average = 0.0102813
	minimum = 0 (at node 0)
	maximum = 0.1645 (at node 15)
Injected flit rate average = 0.0101875
	minimum = 0.007 (at node 2)
	maximum = 0.0155 (at node 13)
Accepted flit rate average= 0.0102813
	minimum = 0 (at node 0)
	maximum = 0.1645 (at node 15)
Injected packet length average = 1
Accepted packet length average = 1
Total in-flight flits = 0 (0 measured)
latency change    = 0.011051
throughput change = 0.0151976
Class 0:
Packet latency average = 23.7906
	minimum = 7
	maximum = 61
Network latency average = 23.7906
	minimum = 7
	maximum = 61
Slowest packet = 3569
Flit latency average = 23.8142
	minimum = 7
	maximum = 61
Slowest flit = 3569
Fragmentation average = 0
	minimum = 0
	maximum = 0
Injected packet rate average = 0.010225
	minimum = 0.0072 (at node 2)
	maximum = 0.014 (at node 7)
Accepted packet rate average = 0.010225
	minimum = 0 (at node 0)
	maximum = 0.1636 (at node 15)
Injected flit rate average = 0.010225
	minimum = 0.0072 (at node 2)
	maximum = 0.014 (at node 7)
Accepted flit rate average= 0.010225
	minimum = 0 (at node 0)
	maximum = 0.1636 (at node 15)
Injected packet length average = 1
Accepted packet length average = 1
Total in-flight flits = 3 (3 measured)
latency change    = 0.00660816
throughput change = 0.00550122
Draining all recorded packets ...
Draining remaining packets ...
Time taken is 4026 cycles
Class 0:
Packet latency average = 23.1552
	minimum = 7
	maximum = 34
Network latency average = 23.1552
	minimum = 7
	maximum = 34
Slowest packet = 3876
Flit latency average = 23.1552
	minimum = 7
	maximum = 34
Slowest flit = 3876
Fragmentation average = 0
	minimum = 0
	maximum = 0
Injected packet rate average = 0.00775
	minimum = 0 (at node 0)
	maximum = 0.016 (at node 4)
Accepted packet rate average = 0.00725
	minimum = 0 (at node 0)
	maximum = 0.116 (at node 15)
Injected flit rate average = 0.00775
	minimum = 0 (at node 0)
	maximum = 0.016 (at node 4)
Accepted flit rate average= 0.00725
	minimum = 0 (at node 0)
	maximum = 0.116 (at node 15)
Injected packet length average = 1
Accepted packet length average = 1
Total in-flight flits = 4 (0 measured)
latency change    = 1
throughput change = 1
Class 0:
Packet latency average = 22.9134
	minimum = 7
	maximum = 40
Network latency average = 22.9134
	minimum = 7
	maximum = 40
Slowest packet = 3909
Flit latency average = 22.9134
	minimum = 7
	maximum = 40
Slowest flit = 3909
Fragmentation average = 0
	minimum = 0
	maximum = 0
Injected packet rate average = 0.00825
	minimum = 0.003 (at node 0)
	maximum = 0.014 (at node 4)
Accepted packet rate average = 0.0079375
	minimum = 0 (at node 0)
	maximum = 0.127 (at node 15)
Injected flit rate average = 0.00825
	minimum = 0.003 (at node 0)
	maximum = 0.014 (at node 4)
Accepted flit rate average= 0.0079375
	minimum = 0 (at node 0)
	maximum = 0.127 (at node 15)
Injected packet length average = 1
Accepted packet length average = 1
Total in-flight flits = 5 (0 measured)
latency change    = 0.0105522
throughput change = 0.0866142
Class 0:
Packet latency average = 23.0375
	minimum = 7
	maximum = 47
Network latency average = 23.0375
	minimum = 7
	maximum = 47
Slowest packet = 4005
Flit latency average = 23.0375
	minimum = 7
	maximum = 47
Slowest flit = 4005
Fragmentation average = 0
	minimum = 0
	maximum = 0
Injected packet rate average = 0.009625
	minimum = 0.002 (at node 5)
	maximum = 0.016 (at node 1)
Accepted packet rate average = 0.01
	minimum = 0 (at node 0)
	maximum = 0.16 (at node 15)
Injected flit rate average = 0.009625
	minimum = 0.002 (at node 5)
	maximum = 0.016 (at node 1)
Accepted flit rate average= 0.01
	minimum = 0 (at node 0)
	maximum = 0.16 (at node 15)
Injected packet length average = 1
Accepted packet length average = 1
Total in-flight flits = 2 (0 measured)
latency change    = 0.00538748
throughput change = 0.20625
Warmed up ...Time used is 1500 cycles
Class 0:
Packet latency average = 21.0667
	minimum = 7
	maximum = 38
Network latency average = 21.0667
	minimum = 7
	maximum = 38
Slowest packet = 4068
Flit latency average = 21.1039
	minimum = 7
	maximum = 38
Slowest flit = 4068
Fragmentation average = 0
	minimum = 0
	maximum = 0
Injected packet rate average = 0.00975
	minimum = 0 (at node 5)
	maximum = 0.016 (at node 6)
Accepted packet rate average = 0.009625
	minimum = 0 (at node 0)
	maximum = 0.154 (at node 15)
Injected flit rate average = 0.00975
	minimum = 0 (at node 5)
	maximum = 0.016 (at node 6)
Accepted flit rate average= 0.009625
	minimum = 0 (at node 0)
	maximum = 0.154 (at node 15)
Injected packet length average = 1
Accepted packet length average = 1
Total in-flight flits = 3 (3 measured)
latency change    = 0.0935522
throughput change = 0.038961
Class 0:
Packet latency average = 23.4908
	minimum = 7
	maximum = 63
Network latency average = 23.4908
	minimum = 7
	maximum = 63
Slowest packet = 4176
Flit latency average = 23.4788
	minimum = 7
	maximum = 63
Slowest flit = 4176
Fragmentation average = 0
	minimum = 0
	maximum = 0
Injected packet rate average = 0.0103125
	minimum = 0.004 (at node 5)
	maximum = 0.015 (at node 8)
Accepted packet rate average = 0.0103125
	minimum = 0 (at node 0)
	maximum = 0.165 (at node 15)
Injected flit rate average = 0.0103125
	minimum = 0.004 (at node 5)
	maximum = 0.015 (at node 8)
Accepted flit rate average= 0.0103125
	minimum = 0 (at node 0)
	maximum = 0.165 (at node 15)
Injected packet length average = 1
Accepted packet length average = 1
Total in-flight flits = 2 (2 measured)
latency change    = 0.103195
throughput change = 0.0666667
Class 0:
Packet latency average = 24.126
	minimum = 7
	maximum = 63
Network latency average = 24.126
	minimum = 7
	maximum = 63
Slowest packet = 4176
Flit latency average = 24.1129
	minimum = 7
	maximum = 63
Slowest flit = 4176
Fragmentation average = 0
	minimum = 0
	maximum = 0
Injected packet rate average = 0.0102917
	minimum = 0.004 (at node 5)
	maximum = 0.016 (at node 4)
Accepted packet rate average = 0.0103333
	minimum = 0 (at node 0)
	maximum = 0.165333 (at node 15)
Injected flit rate average = 0.0102917
	minimum = 0.004 (at node 5)
	maximum = 0.016 (at node 4)
Accepted flit rate average= 0.0103333
	minimum = 0 (at node 0)
	maximum = 0.165333 (at node 15)
Injected packet length average = 1
Accepted packet length average = 1
Total in-flight flits = 1 (1 measured)
latency change    = 0.0263292
throughput change = 0.00201613
Class 0:
Packet latency average = 23.7702
	minimum = 7
	maximum = 63
Network latency average = 23.7702
	minimum = 7
	maximum = 63
Slowest packet = 4176
Flit latency average = 23.7623
	minimum = 7
	maximum = 63
Slowest flit = 4176
Fragmentation average = 0
	minimum = 0
	maximum = 0
Injected packet rate average = 0.0102188
	minimum = 0.006 (at node 5)
	maximum = 0.015 (at node 4)
Accepted packet rate average = 0.010125
	minimum = 0 (at node 0)
	maximum = 0.162 (at node 15)
Injected flit rate average = 0.0102188
	minimum = 0.006 (at node 5)
	maximum = 0.015 (at node 4)
Accepted flit rate average= 0.010125
	minimum = 0 (at node 0)
	maximum = 0.162 (at node 15)
Injected packet length average = 1
Accepted packet length average = 1
Total in-flight flits = 5 (5 measured)
latency change    = 0.0149696
throughput change = 0.0205761
Class 0:
Packet latency average = 24.0885
	minimum = 7
	maximum = 63
Network latency average = 24.0885
	minimum = 7
	maximum = 63
Slowest packet = 4176
Flit latency average = 24.081
	minimum = 7
	maximum = 63
Slowest flit = 4176
Fragmentation average = 0
	minimum = 0
	maximum = 0
Injected packet rate average = 0.01055
	minimum = 0.0064 (at node 5)
	maximum = 0.0132 (at node 4)
Accepted packet rate average = 0.0105
	minimum = 0 (at node 0)
	maximum = 0.168 (at node 15)
Injected flit rate average = 0.01055
	minimum = 0.0064 (at node 5)
	maximum = 0.0132 (at node 4)
Accepted flit rate average= 0.0105
	minimum = 0 (at node 0)
	maximum = 0.168 (at node 15)
Injected packet length average = 1
Accepted packet length average = 1
Total in-flight flits = 4 (4 measured)
latency change    = 0.013215
throughput change = 0.0357143
Draining all recorded packets ...
Draining remaining packets ...
Time taken is 4053 cycles
Class 0:
Packet latency average = 24.6582
	minimum = 7
	maximum = 56
Network latency average = 24.6582
	minimum = 7
	maximum = 56
Slowest packet = 4506
Flit latency average = 24.6582
	minimum = 7
	maximum = 56
Slowest flit = 4506
Fragmentation average = 0
	minimum = 0
	maximum = 0
Injected packet rate average = 0.0105
	minimum = 0.002 (at node 7)
	maximum = 0.018 (at node 2)
Accepted packet rate average = 0.009875
	minimum = 0 (at node 0)
	maximum = 0.158 (at node 15)
Injected flit rate average = 0.0105
	minimum = 0.002 (at node 7)
	maximum = 0.018 (at node 2)
Accepted flit rate average= 0.009875
	minimum = 0 (at node 0)
	maximum = 0.158 (at node 15)
Injected packet length average = 1
Accepted packet length average = 1
Total in-flight flits = 5 (0 measured)
latency change    = 1
throughput change = 1
Class 0:
Packet latency average = 24.3425
	minimum = 7
	maximum = 56
Network latency average = 24.3425
	minimum = 7
	maximum = 56
Slowest packet = 4506
Flit latency average = 24.3425
	minimum = 7
	maximum = 56
Slowest flit = 4506
Fragmentation average = 0
	minimum = 0
	maximum = 0
Injected packet rate average = 0.0115
	minimum = 0.004 (at node 7)
	maximum = 0.018 (at node 10)
Accepted packet rate average = 0.0113125
	minimum = 0 (at node 0)
	maximum = 0.181 (at node 15)
Injected flit rate average = 0.0115
	minimum = 0.004 (at node 7)
	maximum = 0.018 (at node 10)
Accepted flit rate average= 0.0113125
	minimum = 0 (at node 0)
	maximum = 0.181 (at node 15)
Injected packet length average = 1
Accepted packet length average = 1
Total in-flight flits = 3 (0 measured)
latency change    = 0.0129685
throughput change = 0.127072
Class 0:
Packet latency average = 23.4085
	minimum = 7
	maximum = 47
Network latency average = 23.4085
	minimum = 7
	maximum = 47
Slowest packet = 4660
Flit latency average = 23.4085
	minimum = 7
	maximum = 47
Slowest flit = 4660
Fragmentation average = 0
	minimum = 0
	maximum = 0
Injected packet rate average = 0.009
	minimum = 0.002 (at node 13)
	maximum = 0.016 (at node 11)
Accepted packet rate average = 0.008875
	minimum = 0 (at node 0)
	maximum = 0.142 (at node 15)
Injected flit rate average = 0.009
	minimum = 0.002 (at node 13)
	maximum = 0.016 (at node 11)
Accepted flit rate average= 0.008875
	minimum = 0 (at node 0)
	maximum = 0.142 (at node 15)
Injected packet length average = 1
Accepted packet length average = 1
Total in-flight flits = 4 (0 measured)
latency change    = 0.039904
throughput change = 0.274648
Warmed up ...Time used is 1500 cycles
Class 0:
Packet latency average = 27.3333
	minimum = 7
	maximum = 61
Network latency average = 27.3333
	minimum = 7
	maximum = 61
Slowest packet = 4767
Flit latency average = 27.3544
	minimum = 7
	maximum = 61
Slowest flit = 4767
Fragmentation average = 0
	minimum = 0
	maximum = 0
Injected packet rate average = 0.010125
	minimum = 0 (at node 13)
	maximum = 0.02 (at node 4)
Accepted packet rate average = 0.009875
	minimum = 0 (at node 0)
	maximum = 0.158 (at node 15)
Injected flit rate average = 0.010125
	minimum = 0 (at node 13)
	maximum = 0.02 (at node 4)
Accepted flit rate average= 0.009875
	minimum = 0 (at node 0)
	maximum = 0.158 (at node 15)
Injected packet length average = 1
Accepted packet length average = 1
Total in-flight flits = 6 (6 measured)
latency change    = 0.143593
throughput change = 0.101266
Class 0:
Packet latency average = 26.5305
	minimum = 7
	maximum = 61
Network latency average = 26.5305
	minimum = 7
	maximum = 61
Slowest packet = 4767
Flit latency average = 26.5595
	minimum = 7
	maximum = 61
Slowest flit = 4767
Fragmentation average = 0
	minimum = 0
	maximum = 0
Injected packet rate average = 0.01075
	minimum = 0.005 (at node 13)
	maximum = 0.017 (at node 4)
Accepted packet rate average = 0.0105
	minimum = 0 (at node 0)
	maximum = 0.168 (at node 15)
Injected flit rate average = 0.01075
	minimum = 0.005 (at node 13)
	maximum = 0.017 (at node 4)
Accepted flit rate average= 0.0105
	minimum = 0 (at node 0)
	maximum = 0.168 (at node 15)
Injected packet length average = 1
Accepted packet length average = 1
Total in-flight flits = 8 (8 measured)
latency change    = 0.0302612
throughput change = 0.0595238
Class 0:
Packet latency average = 25.6597
	minimum = 7
	maximum = 61
Network latency average = 25.6597
	minimum = 7
	maximum = 61
Slowest packet = 4767
Flit latency average = 25.6942
	minimum = 7
	maximum = 61
Slowest flit = 4767
Fragmentation average = 0
	minimum = 0
	maximum = 0
Injected packet rate average = 0.0100417
	minimum = 0.00533333 (at node 13)
	maximum = 0.014 (at node 8)
Accepted packet rate average = 0.0100833
	minimum = 0 (at node 0)
	maximum = 0.161333 (at node 15)
Injected flit rate average = 0.0100417
	minimum = 0.00533333 (at node 13)
	maximum = 0.014 (at node 8)
Accepted flit rate average= 0.0100833
	minimum = 0 (at node 0)
	maximum = 0.161333 (at node 15)
Injected packet length average = 1
Accepted packet length average = 1
Total in-flight flits = 3 (3 measured)
latency change    = 0.0339375
throughput change = 0.0413223
Class 0:
Packet latency average = 25.3908
	minimum = 7
	maximum = 61
Network latency average = 25.3908
	minimum = 7
	maximum = 61
Slowest packet = 4767
Flit latency average = 25.4195
	minimum = 7
	maximum = 61
Slowest flit = 4767
Fragmentation average = 0
	minimum = 0
	maximum = 0
Injected packet rate average = 0.01025
	minimum = 0.0055 (at node 13)
	maximum = 0.013 (at node 4)
Accepted packet rate average = 0.0102813
	minimum = 0 (at node 0)
	maximum = 0.1645 (at node 15)
Injected flit rate average = 0.01025
	minimum = 0.0055 (at node 13)
	maximum = 0.013 (at node 4)
Accepted flit rate average= 0.0102813
	minimum = 0 (at node 0)
	maximum = 0.1645 (at node 15)
Injected packet length average = 1
Accepted packet length average = 1
Total in-flight flits = 3 (3 measured)
latency change    = 0.0105903
throughput change = 0.0192503
Class 0:
Packet latency average = 24.5747
	minimum = 7
	maximum = 61
Network latency average = 24.5747
	minimum = 7
	maximum = 61
Slowest packet = 4767
Flit latency average = 24.6071
	minimum = 7
	maximum = 61
Slowest flit = 4767
Fragmentation average = 0
	minimum = 0
	maximum = 0
Injected packet rate average = 0.009775
	minimum = 0.006 (at node 13)
	maximum = 0.0128 (at node 4)
Accepted packet rate average = 0.0098
	minimum = 0 (at node 0)
	maximum = 0.1568 (at node 15)
Injected flit rate average = 0.009775
	minimum = 0.006 (at node 13)
	maximum = 0.0128 (at node 4)
Accepted flit rate average= 0.0098
	minimum = 0 (at node 0)
	maximum = 0.1568 (at node 15)
Injected packet length average = 1
Accepted packet length average = 1
Total in-flight flits = 3 (3 measured)
latency change    = 0.0332059
throughput change = 0.0491071
Draining all recorded packets ...
Draining remaining packets ...
Time taken is 4029 cycles
Class 0:
Packet latency average = 22.2353
	minimum = 7
	maximum = 44
Network latency average = 22.2353
	minimum = 7
	maximum = 44
Slowest packet = 5174
Flit latency average = 22.2353
	minimum = 7
	maximum = 44
Slowest flit = 5174
Fragmentation average = 0
	minimum = 0
	maximum = 0
Injected packet rate average = 0.011125
	minimum = 0.002 (at node 0)
	maximum = 0.018 (at node 3)
Accepted packet rate average = 0.010625
	minimum = 0 (at node 0)
	maximum = 0.17 (at node 15)
Injected flit rate average = 0.011125
	minimum = 0.002 (at node 0)
	maximum = 0.018 (at node 3)
Accepted flit rate average= 0.010625
	minimum = 0 (at node 0)
	maximum = 0.17 (at node 15)
Injected packet length average = 1
Accepted packet length average = 1
Total in-flight flits = 4 (0 measured)
latency change    = 1
throughput change = 1
Class 0:
Packet latency average = 22.4286
	minimum = 7
	maximum = 44
Network latency average = 22.4286
	minimum = 7
	maximum = 44
Slowest packet = 5174
Flit latency average = 22.4286
	minimum = 7
	maximum = 44
Slowest flit = 5174
Fragmentation average = 0
	minimum = 0
	maximum = 0
Injected packet rate average = 0.0110625
	minimum = 0.003 (at node 0)
	maximum = 0.016 (at node 3)
Accepted packet rate average = 0.0109375
	minimum = 0 (at node 0)
	maximum = 0.175 (at node 15)
Injected flit rate average = 0.0110625
	minimum = 0.003 (at node 0)
	maximum = 0.016 (at node 3)
Accepted flit rate average= 0.0109375
	minimum = 0 (at node 0)
	maximum = 0.175 (at node 15)
Injected packet length average = 1
Accepted packet length average = 1
Total in-flight flits = 2 (0 measured)
latency change    = 0.00861746
throughput change = 0.0285714
Class 0:
Packet latency average = 23.2727
	minimum = 7
	maximum = 46
Network latency average = 23.2727
	minimum = 7
	maximum = 46
Slowest packet = 5291
Flit latency average = 23.2727
	minimum = 7
	maximum = 46
Slowest flit = 5291
Fragmentation average = 0
	minimum = 0
	maximum = 0
Injected packet rate average = 0.01025
	minimum = 0.002 (at node 0)
	maximum = 0.018 (at node 1)
Accepted packet rate average = 0.009625
	minimum = 0 (at node 0)
	maximum = 0.154 (at node 15)
Injected flit rate average = 0.01025
	minimum = 0.002 (at node 0)
	maximum = 0.018 (at node 1)
Accepted flit rate average= 0.009625
	minimum = 0 (at node 0)
	maximum = 0.154 (at node 15)
Injected packet length average = 1
Accepted packet length average = 1
Total in-flight flits = 7 (0 measured)
latency change    = 0.0362723
throughput change = 0.136364
Warmed up ...Time used is 1500 cycles
Class 0:
Packet latency average = 24.375
	minimum = 7
	maximum = 49
Network latency average = 24.375
	minimum = 7
	maximum = 49
Slowest packet = 5388
Flit latency average = 25.5493
	minimum = 7
	maximum = 50
Slowest flit = 5358
Fragmentation average = 0
	minimum = 0
	maximum = 0
Injected packet rate average = 0.00825
	minimum = 0.002 (at node 9)
	maximum = 0.016 (at node 7)
Accepted packet rate average = 0.008875
	minimum = 0 (at node 0)
	maximum = 0.142 (at node 15)
Injected flit rate average = 0.00825
	minimum = 0.002 (at node 9)
	maximum = 0.016 (at node 7)
Accepted flit rate average= 0.008875
	minimum = 0 (at node 0)
	maximum = 0.142 (at node 15)
Injected packet length average = 1
Accepted packet length average = 1
Total in-flight flits = 2 (2 measured)
latency change    = 0.0452214
throughput change = 0.084507
Class 0:
Packet latency average = 24.2945
	minimum = 7
	maximum = 55
Network latency average = 24.2945
	minimum = 7
	maximum = 55
Slowest packet = 5478
Flit latency average = 24.8431
	minimum = 7
	maximum = 55
Slowest flit = 5478
Fragmentation average = 0
	minimum = 0
	maximum = 0
Injected packet rate average = 0.00925
	minimum = 0.003 (at node 14)
	maximum = 0.018 (at node 11)
Accepted packet rate average = 0.0095625
	minimum = 0 (at node 0)
	maximum = 0.153 (at node 15)
Injected flit rate average = 0.00925
	minimum = 0.003 (at node 14)
	maximum = 0.018 (at node 11)
Accepted flit rate average= 0.0095625
	minimum = 0 (at node 0)
	maximum = 0.153 (at node 15)
Injected packet length average = 1
Accepted packet length average = 1
Total in-flight flits = 2 (2 measured)
latency change    = 0.00331266
throughput change = 0.0718954
Class 0:
Packet latency average = 24
	minimum = 7
	maximum = 55
Network latency average = 24
	minimum = 7
	maximum = 55
Slowest packet = 5478
Flit latency average = 24.3805
	minimum = 7
	maximum = 55
Slowest flit = 5478
Fragmentation average = 0
	minimum = 0
	maximum = 0
Injected packet rate average = 0.00929167
	minimum = 0.00533333 (at node 13)
	maximum = 0.016 (at node 11)
Accepted packet rate average = 0.00941667
	minimum = 0 (at node 0)
	maximum = 0.150667 (at node 15)
Injected flit rate average = 0.00929167
	minimum = 0.00533333 (at node 13)
	maximum = 0.016 (at node 11)
Accepted flit rate average= 0.00941667
	minimum = 0 (at node 0)
	maximum = 0.150667 (at node 15)
Injected packet length average = 1
Accepted packet length average = 1
Total in-flight flits = 4 (4 measured)
latency change    = 0.0122717
throughput change = 0.0154867
Class 0:
Packet latency average = 24.3488
	minimum = 7
	maximum = 71
Network latency average = 24.3488
	minimum = 7
	maximum = 71
Slowest packet = 5613
Flit latency average = 24.6201
	minimum = 7
	maximum = 71
Slowest flit = 5613
Fragmentation average = 0
	minimum = 0
	maximum = 0
Injected packet rate average = 0.0094375
	minimum = 0.0065 (at node 3)
	maximum = 0.0165 (at node 7)
Accepted packet rate average = 0.009625
	minimum = 0 (at node 0)
	maximum = 0.154 (at node 15)
Injected flit rate average = 0.0094375
	minimum = 0.0065 (at node 3)
	maximum = 0.0165 (at node 7)
Accepted flit rate average= 0.009625
	minimum = 0 (at node 0)
	maximum = 0.154 (at node 15)
Injected packet length average = 1
Accepted packet length average = 1
Total in-flight flits = 1 (1 measured)
latency change    = 0.0143266
throughput change = 0.021645
Class 0:
Packet latency average = 24.048
	minimum = 7
	maximum = 71
Network latency average = 24.048
	minimum = 7
	maximum = 71
Slowest packet = 5613
Flit latency average = 24.2723
	minimum = 7
	maximum = 71
Slowest flit = 5613
Fragmentation average = 0
	minimum = 0
	maximum = 0
Injected packet rate average = 0.0095
	minimum = 0.0064 (at node 12)
	maximum = 0.0152 (at node 7)
Accepted packet rate average = 0.00955
	minimum = 0 (at node 0)
	maximum = 0.1528 (at node 15)
Injected flit rate average = 0.0095
	minimum = 0.0064 (at node 12)
	maximum = 0.0152 (at node 7)
Accepted flit rate average= 0.00955
	minimum = 0 (at node 0)
	maximum = 0.1528 (at node 15)
Injected packet length average = 1
Accepted packet length average = 1
Total in-flight flits = 5 (5 measured)
latency change    = 0.0125099
throughput change = 0.0078534
Draining all recorded packets ...
Draining remaining packets ...
Time taken is 4042 cycles
Class 0:
Packet latency average = 23.942
	minimum = 7
	maximum = 38
Network latency average = 23.942
	minimum = 7
	maximum = 38
Slowest packet = 5767
Flit latency average = 23.942
	minimum = 7
	maximum = 38
Slowest flit = 5767
Fragmentation average = 0
	minimum = 0
	maximum = 0
Injected packet rate average = 0.008875
	minimum = 0.004 (at node 13)
	maximum = 0.014 (at node 2)
Accepted packet rate average = 0.008625
	minimum = 0 (at node 0)
	maximum = 0.138 (at node 15)
Injected flit rate average = 0.008875
	minimum = 0.004 (at node 13)
	maximum = 0.014 (at node 2)
Accepted flit rate average= 0.008625
	minimum = 0 (at node 0)
	maximum = 0.138 (at node 15)
Injected packet length average = 1
Accepted packet length average = 1
Total in-flight flits = 2 (0 measured)
latency change    = 1
throughput change = 1
Class 0:
Packet latency average = 23.4255
	minimum = 7
	maximum = 53
Network latency average = 23.4255
	minimum = 7
	maximum = 53
Slowest packet = 5841
Flit latency average = 23.4255
	minimum = 7
	maximum = 53
Slowest flit = 5841
Fragmentation average = 0
	minimum = 0
	maximum = 0
Injected packet rate average = 0.0089375
	minimum = 0.004 (at node 6)
	maximum = 0.013 (at node 4)
Accepted packet rate average = 0.0088125
	minimum = 0 (at node 0)
	maximum = 0.141 (at node 15)
Injected flit rate average = 0.0089375
	minimum = 0.004 (at node 6)
	maximum = 0.013 (at node 4)
Accepted flit rate average= 0.0088125
	minimum = 0 (at node 0)
	maximum = 0.141 (at node 15)
Injected packet length average = 1
Accepted packet length average = 1
Total in-flight flits = 2 (0 measured)
latency change    = 0.0220485
throughput change = 0.0212766
Class 0:
Packet latency average = 26.6098
	minimum = 7
	maximum = 52
Network latency average = 26.6098
	minimum = 7
	maximum = 52
Slowest packet = 5898
Flit latency average = 26.6098
	minimum = 7
	maximum = 52
Slowest flit = 5898
Fragmentation average = 0
	minimum = 0
	maximum = 0
Injected packet rate average = 0.0105
	minimum = 0.002 (at node 15)
	maximum = 0.02 (at node 7)
Accepted packet rate average = 0.01025
	minimum = 0 (at node 0)
	maximum = 0.164 (at node 15)
Injected flit rate average = 0.0105
	minimum = 0.002 (at node 15)
	maximum = 0.02 (at node 7)
Accepted flit rate average= 0.01025
	minimum = 0 (at node 0)
	maximum = 0.164 (at node 15)
Injected packet length average = 1
Accepted packet length average = 1
Total in-flight flits = 4 (0 measured)
latency change    = 0.119664
throughput change = 0.140244
Warmed up ...Time used is 1500 cycles
Class 0:
Packet latency average = 23.8194
	minimum = 7
	maximum = 40
Network latency average = 23.8194
	minimum = 7
	maximum = 40
Slowest packet = 6005
Flit latency average = 23.8026
	minimum = 7
	maximum = 40
Slowest flit = 6005
Fragmentation average = 0
	minimum = 0
	maximum = 0
Injected packet rate average = 0.009625
	minimum = 0.002 (at node 11)
	maximum = 0.016 (at node 0)
Accepted packet rate average = 0.0095
	minimum = 0 (at node 0)
	maximum = 0.152 (at node 15)
Injected flit rate average = 0.009625
	minimum = 0.002 (at node 11)
	maximum = 0.016 (at node 0)
Accepted flit rate average= 0.0095
	minimum = 0 (at node 0)
	maximum = 0.152 (at node 15)
Injected packet length average = 1
Accepted packet length average = 1
Total in-flight flits = 5 (5 measured)
latency change    = 0.117144
throughput change = 0.0789474
Class 0:
Packet latency average = 23.777
	minimum = 7
	maximum = 51
Network latency average = 23.777
	minimum = 7
	maximum = 51
Slowest packet = 6073
Flit latency average = 23.7697
	minimum = 7
	maximum = 51
Slowest flit = 6073
Fragmentation average = 0
	minimum = 0
	maximum = 0
Injected packet rate average = 0.009375
	minimum = 0.006 (at node 11)
	maximum = 0.016 (at node 0)
Accepted packet rate average = 0.0095
	minimum = 0 (at node 0)
	maximum = 0.152 (at node 15)
Injected flit rate average = 0.009375
	minimum = 0.006 (at node 11)
	maximum = 0.016 (at node 0)
Accepted flit rate average= 0.0095
	minimum = 0 (at node 0)
	maximum = 0.152 (at node 15)
Injected packet length average = 1
Accepted packet length average = 1
Total in-flight flits = 2 (2 measured)
latency change    = 0.00178397
throughput change = 0
Class 0:
Packet latency average = 24.2844
	minimum = 7
	maximum = 58
Network latency average = 24.2844
	minimum = 7
	maximum = 58
Slowest packet = 6172
Flit latency average = 24.2703
	minimum = 7
	maximum = 58
Slowest flit = 6172
Fragmentation average = 0
	minimum = 0
	maximum = 0
Injected packet rate average = 0.00916667
	minimum = 0.00533333 (at node 13)
	maximum = 0.0146667 (at node 0)
Accepted packet rate average = 0.00925
	minimum = 0 (at node 0)
	maximum = 0.148 (at node 15)
Injected flit rate average = 0.00916667
	minimum = 0.00533333 (at node 13)
	maximum = 0.0146667 (at node 0)
Accepted flit rate average= 0.00925
	minimum = 0 (at node 0)
	maximum = 0.148 (at node 15)
Injected packet length average = 1
Accepted packet length average = 1
Total in-flight flits = 2 (2 measured)
latency change    = 0.0208931
throughput change = 0.027027
Class 0:
Packet latency average = 24.7228
	minimum = 7
	maximum = 58
Network latency average = 24.7228
	minimum = 7
	maximum = 58
Slowest packet = 6172
Flit latency average = 24.7059
	minimum = 7
	maximum = 58
Slowest flit = 6172
Fragmentation average = 0
	minimum = 0
	maximum = 0
Injected packet rate average = 0.00896875
	minimum = 0.0055 (at node 13)
	maximum = 0.0145 (at node 0)
Accepted packet rate average = 0.00903125
	minimum = 0 (at node 0)
	maximum = 0.1445 (at node 15)
Injected flit rate average = 0.00896875
	minimum = 0.0055 (at node 13)
	maximum = 0.0145 (at node 0)
Accepted flit rate average= 0.00903125
	minimum = 0 (at node 0)
	maximum = 0.1445 (at node 15)
Injected packet length average = 1
Accepted packet length average = 1
Total in-flight flits = 2 (2 measured)
latency change    = 0.0177327
throughput change = 0.0242215
Draining all recorded packets ...
Draining remaining packets ...
Time taken is 3531 cycles
Class 0:
Packet latency average = 26.1744
	minimum = 7
	maximum = 58
Network latency average = 26.1744
	minimum = 7
	maximum = 58
Slowest packet = 6305
Flit latency average = 26.1744
	minimum = 7
	maximum = 58
Slowest flit = 6305
Fragmentation average = 0
	minimum = 0
	maximum = 0
Injected packet rate average = 0.011875
	minimum = 0.004 (at node 14)
	maximum = 0.02 (at node 0)
Accepted packet rate average = 0.01075
	minimum = 0 (at node 0)
	maximum = 0.172 (at node 15)
Injected flit rate average = 0.011875
	minimum = 0.004 (at node 14)
	maximum = 0.02 (at node 0)
Accepted flit rate average= 0.01075
	minimum = 0 (at node 0)
	maximum = 0.172 (at node 15)
Injected packet length average = 1
Accepted packet length average = 1
Total in-flight flits = 9 (0 measured)
latency change    = 1
throughput change = 1
Class 0:
Packet latency average = 25.9695
	minimum = 7
	maximum = 58
Network latency average = 25.9695
	minimum = 7
	maximum = 58
Slowest packet = 6305
Flit latency average = 25.9695
	minimum = 7
	maximum = 58
Slowest flit = 6305
Fragmentation average = 0
	minimum = 0
	maximum = 0
Injected packet rate average = 0.010375
	minimum = 0.004 (at node 13)
	maximum = 0.016 (at node 12)
Accepted packet rate average = 0.01025
	minimum = 0 (at node 0)
	maximum = 0.164 (at node 15)
Injected flit rate average = 0.010375
	minimum = 0.004 (at node 13)
	maximum = 0.016 (at node 12)
Accepted flit rate average= 0.01025
	minimum = 0 (at node 0)
	maximum = 0.164 (at node 15)
Injected packet length average = 1
Accepted packet length average = 1
Total in-flight flits = 2 (0 measured)
latency change    = 0.00789027
throughput change = 0.0487805
Class 0:
Packet latency average = 23.7536
	minimum = 7
	maximum = 49
Network latency average = 23.7536
	minimum = 7
	maximum = 49
Slowest packet = 6493
Flit latency average = 23.7536
	minimum = 7
	maximum = 49
Slowest flit = 6493
Fragmentation average = 0
	minimum = 0
	maximum = 0
Injected packet rate average = 0.009
	minimum = 0.002 (at node 2)
	maximum = 0.02 (at node 13)
Accepted packet rate average = 0.008625
	minimum = 0 (at node 0)
	maximum = 0.138 (at node 15)
Injected flit rate average = 0.009
	minimum = 0.002 (at node 2)
	maximum = 0.02 (at node 13)
Accepted flit rate average= 0.008625
	minimum = 0 (at node 0)
	maximum = 0.138 (at node 15)
Injected packet length average = 1
Accepted packet length average = 1
Total in-flight flits = 5 (0 measured)
latency change    = 0.0932864
throughput change = 0.188406
Warmed up ...Time used is 1500 cycles
Class 0:
Packet latency average = 25.8533
	minimum = 7
	maximum = 65
Network latency average = 25.8533
	minimum = 7
	maximum = 65
Slowest packet = 6530
Flit latency average = 25.6125
	minimum = 7
	maximum = 65
Slowest flit = 6530
Fragmentation average = 0
	minimum = 0
	maximum = 0
Injected packet rate average = 0.00975
	minimum = 0.002 (at node 13)
	maximum = 0.018 (at node 8)
Accepted packet rate average = 0.01
	minimum = 0 (at node 0)
	maximum = 0.16 (at node 15)
Injected flit rate average = 0.00975
	minimum = 0.002 (at node 13)
	maximum = 0.018 (at node 8)
Accepted flit rate average= 0.01
	minimum = 0 (at node 0)
	maximum = 0.16 (at node 15)
Injected packet length average = 1
Accepted packet length average = 1
Total in-flight flits = 3 (3 measured)
latency change    = 0.0812162
throughput change = 0.1375
Class 0:
Packet latency average = 24.5664
	minimum = 7
	maximum = 65
Network latency average = 24.5664
	minimum = 7
	maximum = 65
Slowest packet = 6530
Flit latency average = 24.4797
	minimum = 7
	maximum = 65
Slowest flit = 6530
Fragmentation average = 0
	minimum = 0
	maximum = 0
Injected packet rate average = 0.009125
	minimum = 0.004 (at node 13)
	maximum = 0.014 (at node 8)
Accepted packet rate average = 0.00925
	minimum = 0 (at node 0)
	maximum = 0.148 (at node 15)
Injected flit rate average = 0.009125
	minimum = 0.004 (at node 13)
	maximum = 0.014 (at node 8)
Accepted flit rate average= 0.00925
	minimum = 0 (at node 0)
	maximum = 0.148 (at node 15)
Injected packet length average = 1
Accepted packet length average = 1
Total in-flight flits = 3 (3 measured)
latency change    = 0.0523845
throughput change = 0.0810811
Class 0:
Packet latency average = 23.7845
	minimum = 7
	maximum = 65
Network latency average = 23.7845
	minimum = 7
	maximum = 65
Slowest packet = 6530
Flit latency average = 23.7468
	minimum = 7
	maximum = 65
Slowest flit = 6530
Fragmentation average = 0
	minimum = 0
	maximum = 0
Injected packet rate average = 0.00983333
	minimum = 0.006 (at node 13)
	maximum = 0.0133333 (at node 8)
Accepted packet rate average = 0.009875
	minimum = 0 (at node 0)
	maximum = 0.158 (at node 15)
Injected flit rate average = 0.00983333
	minimum = 0.006 (at node 13)
	maximum = 0.0133333 (at node 8)
Accepted flit rate average= 0.009875
	minimum = 0 (at node 0)
	maximum = 0.158 (at node 15)
Injected packet length average = 1
Accepted packet length average = 1
Total in-flight flits = 4 (4 measured)
latency change    = 0.0328765
throughput change = 0.0632911
Class 0:
Packet latency average = 24.5806
	minimum = 7
	maximum = 75
Network latency average = 24.5806
	minimum = 7
	maximum = 75
Slowest packet = 6783
Flit latency average = 24.5397
	minimum = 7
	maximum = 75
Slowest flit = 6783
Fragmentation average = 0
	minimum = 0
	maximum = 0
Injected packet rate average = 0.0096875
	minimum = 0.0055 (at node 13)
	maximum = 0.0135 (at node 8)
Accepted packet rate average = 0.00984375
	minimum = 0 (at node 0)
	maximum = 0.1575 (at node 15)
Injected flit rate average = 0.0096875
	minimum = 0.0055 (at node 13)
	maximum = 0.0135 (at node 8)
Accepted flit rate average= 0.00984375
	minimum = 0 (at node 0)
	maximum = 0.1575 (at node 15)
Injected packet length average = 1
Accepted packet length average = 1
Total in-flight flits = 0 (0 measured)
latency change    = 0.0323898
throughput change = 0.0031746
Class 0:
Packet latency average = 24.4069
	minimum = 7
	maximum = 75
Network latency average = 24.4069
	minimum = 7
	maximum = 75
Slowest packet = 6783
Flit latency average = 24.3753
	minimum = 7
	maximum = 75
Slowest flit = 6783
Fragmentation average = 0
	minimum = 0
	maximum = 0
Injected packet rate average = 0.0095
	minimum = 0.0068 (at node 12)
	maximum = 0.0128 (at node 8)
Accepted packet rate average = 0.009525
	minimum = 0 (at node 0)
	maximum = 0.1524 (at node 15)
Injected flit rate average = 0.0095
	minimum = 0.0068 (at node 12)
	maximum = 0.0128 (at node 8)
Accepted flit rate average= 0.009525
	minimum = 0 (at node 0)
	maximum = 0.1524 (at node 15)
Injected packet length average = 1
Accepted packet length average = 1
Total in-flight flits = 4 (4 measured)
latency change    = 0.00711808
throughput change = 0.0334646
Class 0:
Packet latency average = 24.3133
	minimum = 7
	maximum = 75
Network latency average = 24.3133
	minimum = 7
	maximum = 75
Slowest packet = 6783
Flit latency average = 24.2887
	minimum = 7
	maximum = 75
Slowest flit = 6783
Fragmentation average = 0
	minimum = 0
	maximum = 0
Injected packet rate average = 0.00983333
	minimum = 0.00766667 (at node 12)
	maximum = 0.013 (at node 14)
Accepted packet rate average = 0.0098125
	minimum = 0 (at node 0)
	maximum = 0.157 (at node 15)
Injected flit rate average = 0.00983333
	minimum = 0.00766667 (at node 12)
	maximum = 0.013 (at node 14)
Accepted flit rate average= 0.0098125
	minimum = 0 (at node 0)
	maximum = 0.157 (at node 15)
Injected packet length average = 1
Accepted packet length average = 1
Total in-flight flits = 6 (6 measured)
latency change    = 0.00385016
throughput change = 0.0292994
Draining all recorded packets ...
Draining remaining packets ...
Time taken is 4560 cycles
Class 0:
Packet latency average = 25.6494
	minimum = 7
	maximum = 48
Network latency average = 25.6494
	minimum = 7
	maximum = 48
Slowest packet = 7032
Flit latency average = 25.6494
	minimum = 7
	maximum = 48
Slowest flit = 7032
Fragmentation average = 0
	minimum = 0
	maximum = 0
Injected packet rate average = 0.00975
	minimum = 0.004 (at node 15)
	maximum = 0.014 (at node 4)
Accepted packet rate average = 0.009625
	minimum = 0 (at node 0)
	maximum = 0.154 (at node 15)
Injected flit rate average = 0.00975
	minimum = 0.004 (at node 15)
	maximum = 0.014 (at node 4)
Accepted flit rate average= 0.009625
	minimum = 0 (at node 0)
	maximum = 0.154 (at node 15)
Injected packet length average = 1
Accepted packet length average = 1
Total in-flight flits = 1 (0 measured)
latency change    = 1
throughput change = 1
Class 0:
Packet latency average = 24.66
	minimum = 7
	maximum = 51
Network latency average = 24.66
	minimum = 7
	maximum = 51
Slowest packet = 7063
Flit latency average = 24.66
	minimum = 7
	maximum = 51
Slowest flit = 7063
Fragmentation average = 0
	minimum = 0
	maximum = 0
Injected packet rate average = 0.0095625
	minimum = 0.007 (at node 15)
	maximum = 0.014 (at node 8)
Accepted packet rate average = 0.009375
	minimum = 0 (at node 0)
	maximum = 0.15 (at node 15)
Injected flit rate average = 0.0095625
	minimum = 0.007 (at node 15)
	maximum = 0.014 (at node 8)
Accepted flit rate average= 0.009375
	minimum = 0 (at node 0)
	maximum = 0.15 (at node 15)
Injected packet length average = 1
Accepted packet length average = 1
Total in-flight flits = 3 (0 measured)
latency change    = 0.0401197
throughput change = 0.0266667
Class 0:
Packet latency average = 21.1494
	minimum = 7
	maximum = 43
Network latency average = 21.1494
	minimum = 7
	maximum = 43
Slowest packet = 7181
Flit latency average = 21.1494
	minimum = 7
	maximum = 43
Slowest flit = 7181
Fragmentation average = 0
	minimum = 0
	maximum = 0
Injected packet rate average = 0.011
	minimum = 0.002 (at node 6)
	maximum = 0.022 (at node 15)
Accepted packet rate average = 0.010875
	minimum = 0 (at node 0)
	maximum = 0.174 (at node 15)
Injected flit rate average = 0.011
	minimum = 0.002 (at node 6)
	maximum = 0.022 (at node 15)
Accepted flit rate average= 0.010875
	minimum = 0 (at node 0)
	maximum = 0.174 (at node 15)
Injected packet length average = 1
Accepted packet length average = 1
Total in-flight flits = 4 (0 measured)
latency change    = 0.165989
throughput change = 0.137931
Warmed up ...Time used is 1500 cycles
Class 0:
Packet latency average = 27.4133
	minimum = 7
	maximum = 61
Network latency average = 27.4133
	minimum = 7
	maximum = 61
Slowest packet = 7246
Flit latency average = 27.7089
	minimum = 7
	maximum = 61
Slowest flit = 7246
Fragmentation average = 0
	minimum = 0
	maximum = 0
Injected packet rate average = 0.009625
	minimum = 0.002 (at node 15)
	maximum = 0.018 (at node 3)
Accepted packet rate average = 0.009875
	minimum = 0 (at node 0)
	maximum = 0.158 (at node 15)
Injected flit rate average = 0.009625
	minimum = 0.002 (at node 15)
	maximum = 0.018 (at node 3)
Accepted flit rate average= 0.009875
	minimum = 0 (at node 0)
	maximum = 0.158 (at node 15)
Injected packet length average = 1
Accepted packet length average = 1
Total in-flight flits = 2 (2 measured)
latency change    = 0.228499
throughput change = 0.101266
Class 0:
Packet latency average = 25.9211
	minimum = 7
	maximum = 61
Network latency average = 25.9211
	minimum = 7
	maximum = 61
Slowest packet = 7246
Flit latency average = 26.109
	minimum = 7
	maximum = 61
Slowest flit = 7246
Fragmentation average = 0
	minimum = 0
	maximum = 0
Injected packet rate average = 0.00975
	minimum = 0.005 (at node 13)
	maximum = 0.014 (at node 1)
Accepted packet rate average = 0.00975
	minimum = 0 (at node 0)
	maximum = 0.156 (at node 15)
Injected flit rate average = 0.00975
	minimum = 0.005 (at node 13)
	maximum = 0.014 (at node 1)
Accepted flit rate average= 0.00975
	minimum = 0 (at node 0)
	maximum = 0.156 (at node 15)
Injected packet length average = 1
Accepted packet length average = 1
Total in-flight flits = 4 (4 measured)
latency change    = 0.0575702
throughput change = 0.0128205
Class 0:
Packet latency average = 25.8402
	minimum = 7
	maximum = 61
Network latency average = 25.8402
	minimum = 7
	maximum = 61
Slowest packet = 7246
Flit latency average = 25.9597
	minimum = 7
	maximum = 61
Slowest flit = 7246
Fragmentation average = 0
	minimum = 0
	maximum = 0
Injected packet rate average = 0.01025
	minimum = 0.00666667 (at node 10)
	maximum = 0.0153333 (at node 4)
Accepted packet rate average = 0.0103333
	minimum = 0 (at node 0)
	maximum = 0.165333 (at node 15)
Injected flit rate average = 0.01025
	minimum = 0.00666667 (at node 10)
	maximum = 0.0153333 (at node 4)
Accepted flit rate average= 0.0103333
	minimum = 0 (at node 0)
	maximum = 0.165333 (at node 15)
Injected packet length average = 1
Accepted packet length average = 1
Total in-flight flits = 2 (2 measured)
latency change    = 0.00313035
throughput change = 0.0564516
Class 0:
Packet latency average = 25.1441
	minimum = 7
	maximum = 61
Network latency average = 25.1441
	minimum = 7
	maximum = 61
Slowest packet = 7246
Flit latency average = 25.2404
	minimum = 7
	maximum = 61
Slowest flit = 7246
Fragmentation average = 0
	minimum = 0
	maximum = 0
Injected packet rate average = 0.0104688
	minimum = 0.007 (at node 13)
	maximum = 0.014 (at node 4)
Accepted packet rate average = 0.0105313
	minimum = 0 (at node 0)
	maximum = 0.1685 (at node 15)
Injected flit rate average = 0.0104688
	minimum = 0.007 (at node 13)
	maximum = 0.014 (at node 4)
[...]
Accepted packet length average = 1
Total in-flight flits = 3 (3 measured)
latency change    = 0.0662581
throughput change = 0.0718954
Class 0:
Packet latency average = 23.2778
	minimum = 7
	maximum = 68
Network latency average = 23.2778
	minimum = 7
	maximum = 68
Slowest packet = 31120
Flit latency average = 23.2532
	minimum = 7
	maximum = 68
Slowest flit = 31120
Fragmentation average = 0
	minimum = 0
	maximum = 0
Injected packet rate average = 0.00991667
	minimum = 0.00733333 (at node 4)
	maximum = 0.016 (at node 13)
Accepted packet rate average = 0.009875
	minimum = 0 (at node 0)
	maximum = 0.158 (at node 15)
Injected flit rate average = 0.00991667
	minimum = 0.00733333 (at node 4)
	maximum = 0.016 (at node 13)
Accepted flit rate average= 0.009875
	minimum = 0 (at node 0)
	maximum = 0.158 (at node 15)
Injected packet length average = 1
Accepted packet length average = 1
Total in-flight flits = 4 (4 measured)
latency change    = 0.0460143
throughput change = 0.0316456
Class 0:
Packet latency average = 23.2277
	minimum = 7
	maximum = 68
Network latency average = 23.2277
	minimum = 7
	maximum = 68
Slowest packet = 31120
Flit latency average = 23.2104
	minimum = 7
	maximum = 68
Slowest flit = 31120
Fragmentation average = 0
	minimum = 0
	maximum = 0
Injected packet rate average = 0.0104375
	minimum = 0.007 (at node 12)
	maximum = 0.0145 (at node 1)
Accepted packet rate average = 0.01025
	minimum = 0 (at node 0)
	maximum = 0.164 (at node 15)
Injected flit rate average = 0.0104375
	minimum = 0.007 (at node 12)
	maximum = 0.0145 (at node 1)
Accepted flit rate average= 0.01025
	minimum = 0 (at node 0)
	maximum = 0.164 (at node 15)
Injected packet length average = 1
Accepted packet length average = 1
Total in-flight flits = 9 (9 measured)
latency change    = 0.00215628
throughput change = 0.0365854
Class 0:
Packet latency average = 24.3675
	minimum = 7
	maximum = 77
Network latency average = 24.3675
	minimum = 7
	maximum = 77
Slowest packet = 31264
Flit latency average = 24.3449
	minimum = 7
	maximum = 77
Slowest flit = 31264
Fragmentation average = 0
	minimum = 0
	maximum = 0
Injected packet rate average = 0.0101
	minimum = 0.0064 (at node 12)
	maximum = 0.0136 (at node 1)
Accepted packet rate average = 0.010075
	minimum = 0 (at node 0)
	maximum = 0.1612 (at node 15)
Injected flit rate average = 0.0101
	minimum = 0.0064 (at node 12)
	maximum = 0.0136 (at node 1)
Accepted flit rate average= 0.010075
	minimum = 0 (at node 0)
	maximum = 0.1612 (at node 15)
Injected packet length average = 1
Accepted packet length average = 1
Total in-flight flits = 4 (4 measured)
latency change    = 0.0467757
throughput change = 0.0173697
Draining all recorded packets ...
Draining remaining packets ...
Time taken is 4057 cycles
Class 0:
Packet latency average = 21.7619
	minimum = 7
	maximum = 42
Network latency average = 21.7619
	minimum = 7
	maximum = 42
Slowest packet = 31359
Flit latency average = 21.7619
	minimum = 7
	maximum = 42
Slowest flit = 31359
Fragmentation average = 0
	minimum = 0
	maximum = 0
Injected packet rate average = 0.0085
	minimum = 0 (at node 3)
	maximum = 0.014 (at node 7)
Accepted packet rate average = 0.007875
	minimum = 0 (at node 0)
	maximum = 0.126 (at node 15)
Injected flit rate average = 0.0085
	minimum = 0 (at node 3)
	maximum = 0.014 (at node 7)
Accepted flit rate average= 0.007875
	minimum = 0 (at node 0)
	maximum = 0.126 (at node 15)
Injected packet length average = 1
Accepted packet length average = 1
Total in-flight flits = 5 (0 measured)
latency change    = 1
throughput change = 1
Class 0:
Packet latency average = 23.2642
	minimum = 7
	maximum = 44
Network latency average = 23.2642
	minimum = 7
	maximum = 44
Slowest packet = 31463
Flit latency average = 23.2642
	minimum = 7
	maximum = 44
Slowest flit = 31463
Fragmentation average = 0
	minimum = 0
	maximum = 0
Injected packet rate average = 0.01
	minimum = 0.005 (at node 0)
	maximum = 0.016 (at node 6)
Accepted packet rate average = 0.0099375
	minimum = 0 (at node 0)
	maximum = 0.159 (at node 15)
Injected flit rate average = 0.01
	minimum = 0.005 (at node 0)
	maximum = 0.016 (at node 6)
Accepted flit rate average= 0.0099375
	minimum = 0 (at node 0)
	maximum = 0.159 (at node 15)
Injected packet length average = 1
Accepted packet length average = 1
Total in-flight flits = 1 (0 measured)
latency change    = 0.0645734
throughput change = 0.207547
Class 0:
Packet latency average = 23.3784
	minimum = 7
	maximum = 46
Network latency average = 23.3784
	minimum = 7
	maximum = 46
Slowest packet = 31502
Flit latency average = 23.3784
	minimum = 7
	maximum = 46
Slowest flit = 31502
Fragmentation average = 0
	minimum = 0
	maximum = 0
Injected packet rate average = 0.0095
	minimum = 0.002 (at node 2)
	maximum = 0.016 (at node 9)
Accepted packet rate average = 0.00925
	minimum = 0 (at node 0)
	maximum = 0.148 (at node 15)
Injected flit rate average = 0.0095
	minimum = 0.002 (at node 2)
	maximum = 0.016 (at node 9)
Accepted flit rate average= 0.00925
	minimum = 0 (at node 0)
	maximum = 0.148 (at node 15)
Injected packet length average = 1
Accepted packet length average = 1
Total in-flight flits = 3 (0 measured)
latency change    = 0.00488603
throughput change = 0.0743243
Warmed up ...Time used is 1500 cycles
Class 0:
Packet latency average = 23.3067
	minimum = 7
	maximum = 40
Network latency average = 23.3067
	minimum = 7
	maximum = 40
Slowest packet = 31596
Flit latency average = 23.1538
	minimum = 7
	maximum = 40
Slowest flit = 31596
Fragmentation average = 0
	minimum = 0
	maximum = 0
Injected packet rate average = 0.009625
	minimum = 0 (at node 9)
	maximum = 0.014 (at node 0)
Accepted packet rate average = 0.00975
	minimum = 0 (at node 0)
	maximum = 0.156 (at node 15)
Injected flit rate average = 0.009625
	minimum = 0 (at node 9)
	maximum = 0.014 (at node 0)
Accepted flit rate average= 0.00975
	minimum = 0 (at node 0)
	maximum = 0.156 (at node 15)
Injected packet length average = 1
Accepted packet length average = 1
Total in-flight flits = 2 (2 measured)
latency change    = 0.00307688
throughput change = 0.0512821
Class 0:
Packet latency average = 23.5497
	minimum = 7
	maximum = 46
Network latency average = 23.5497
	minimum = 7
	maximum = 46
Slowest packet = 31640
Flit latency average = 23.477
	minimum = 7
	maximum = 46
Slowest flit = 31640
Fragmentation average = 0
	minimum = 0
	maximum = 0
Injected packet rate average = 0.0109375
	minimum = 0.002 (at node 9)
	maximum = 0.017 (at node 15)
Accepted packet rate average = 0.010875
	minimum = 0 (at node 0)
	maximum = 0.174 (at node 15)
Injected flit rate average = 0.0109375
	minimum = 0.002 (at node 9)
	maximum = 0.017 (at node 15)
Accepted flit rate average= 0.010875
	minimum = 0 (at node 0)
	maximum = 0.174 (at node 15)
Injected packet length average = 1
Accepted packet length average = 1
Total in-flight flits = 4 (4 measured)
latency change    = 0.0103203
throughput change = 0.103448
Class 0:
Packet latency average = 23.2961
	minimum = 7
	maximum = 48
Network latency average = 23.2961
	minimum = 7
	maximum = 48
Slowest packet = 31736
Flit latency average = 23.2458
	minimum = 7
	maximum = 48
Slowest flit = 31736
Fragmentation average = 0
	minimum = 0
	maximum = 0
Injected packet rate average = 0.00970833
	minimum = 0.002 (at node 9)
	maximum = 0.0146667 (at node 15)
Accepted packet rate average = 0.00983333
	minimum = 0 (at node 0)
	maximum = 0.157333 (at node 15)
Injected flit rate average = 0.00970833
	minimum = 0.002 (at node 9)
	maximum = 0.0146667 (at node 15)
Accepted flit rate average= 0.00983333
	minimum = 0 (at node 0)
	maximum = 0.157333 (at node 15)
Injected packet length average = 1
Accepted packet length average = 1
Total in-flight flits = 0 (0 measured)
latency change    = 0.0108846
throughput change = 0.105932
Class 0:
Packet latency average = 24.0325
	minimum = 7
	maximum = 54
Network latency average = 24.0325
	minimum = 7
	maximum = 54
Slowest packet = 31828
Flit latency average = 23.9871
	minimum = 7
	maximum = 54
Slowest flit = 31828
Fragmentation average = 0
	minimum = 0
	maximum = 0
Injected packet rate average = 0.00971875
	minimum = 0.0055 (at node 10)
	maximum = 0.013 (at node 1)
Accepted packet rate average = 0.00971875
	minimum = 0 (at node 0)
	maximum = 0.1555 (at node 15)
Injected flit rate average = 0.00971875
	minimum = 0.0055 (at node 10)
	maximum = 0.013 (at node 1)
Accepted flit rate average= 0.00971875
	minimum = 0 (at node 0)
	maximum = 0.1555 (at node 15)
Injected packet length average = 1
Accepted packet length average = 1
Total in-flight flits = 3 (3 measured)
latency change    = 0.030639
throughput change = 0.0117899
Class 0:
Packet latency average = 24.0206
	minimum = 7
	maximum = 54
Network latency average = 24.0206
	minimum = 7
	maximum = 54
Slowest packet = 31828
Flit latency average = 23.9847
	minimum = 7
	maximum = 54
Slowest flit = 31828
Fragmentation average = 0
	minimum = 0
	maximum = 0
Injected packet rate average = 0.009825
	minimum = 0.006 (at node 9)
	maximum = 0.0124 (at node 1)
Accepted packet rate average = 0.009775
	minimum = 0 (at node 0)
	maximum = 0.1564 (at node 15)
Injected flit rate average = 0.009825
	minimum = 0.006 (at node 9)
	maximum = 0.0124 (at node 1)
Accepted flit rate average= 0.009775
	minimum = 0 (at node 0)
	maximum = 0.1564 (at node 15)
Injected packet length average = 1
Accepted packet length average = 1
Total in-flight flits = 5 (5 measured)
latency change    = 0.000493284
throughput change = 0.00575448
Class 0:
Packet latency average = 24.0216
	minimum = 7
	maximum = 54
Network latency average = 24.0216
	minimum = 7
	maximum = 54
Slowest packet = 31828
Flit latency average = 23.9914
	minimum = 7
	maximum = 54
Slowest flit = 31828
Fragmentation average = 0
	minimum = 0
	maximum = 0
Injected packet rate average = 0.00970833
	minimum = 0.006 (at node 9)
	maximum = 0.0126667 (at node 2)
Accepted packet rate average = 0.0096875
	minimum = 0 (at node 0)
	maximum = 0.155 (at node 15)
Injected flit rate average = 0.00970833
	minimum = 0.006 (at node 9)
	maximum = 0.0126667 (at node 2)
Accepted flit rate average= 0.0096875
	minimum = 0 (at node 0)
	maximum = 0.155 (at node 15)
Injected packet length average = 1
Accepted packet length average = 1
Total in-flight flits = 4 (4 measured)
latency change    = 4.27308e-05
throughput change = 0.00903226
Draining all recorded packets ...
Draining remaining packets ...
Time taken is 4539 cycles
Class 0:
Packet latency average = 25.0385
	minimum = 7
	maximum = 50
Network latency average = 25.0385
	minimum = 7
	maximum = 50
Slowest packet = 32073
Flit latency average = 25.0385
	minimum = 7
	maximum = 50
Slowest flit = 32073
Fragmentation average = 0
	minimum = 0
	maximum = 0
Injected packet rate average = 0.009875
	minimum = 0.002 (at node 14)
	maximum = 0.014 (at node 0)
Accepted packet rate average = 0.00975
	minimum = 0 (at node 0)
	maximum = 0.156 (at node 15)
Injected flit rate average = 0.009875
	minimum = 0.002 (at node 14)
	maximum = 0.014 (at node 0)
Accepted flit rate average= 0.00975
	minimum = 0 (at node 0)
	maximum = 0.156 (at node 15)
Injected packet length average = 1
Accepted packet length average = 1
Total in-flight flits = 1 (0 measured)
latency change    = 1
throughput change = 1
Class 0:
Packet latency average = 24.2609
	minimum = 7
	maximum = 51
Network latency average = 24.2609
	minimum = 7
	maximum = 51
Slowest packet = 32142
Flit latency average = 24.2609
	minimum = 7
	maximum = 51
Slowest flit = 32142
Fragmentation average = 0
	minimum = 0
	maximum = 0
Injected packet rate average = 0.01025
	minimum = 0.003 (at node 5)
	maximum = 0.015 (at node 15)
Accepted packet rate average = 0.0100625
	minimum = 0 (at node 0)
	maximum = 0.161 (at node 15)
Injected flit rate average = 0.01025
	minimum = 0.003 (at node 5)
	maximum = 0.015 (at node 15)
Accepted flit rate average= 0.0100625
	minimum = 0 (at node 0)
	maximum = 0.161 (at node 15)
Injected packet length average = 1
Accepted packet length average = 1
Total in-flight flits = 3 (0 measured)
latency change    = 0.0320513
throughput change = 0.0310559
Class 0:
Packet latency average = 23.2703
	minimum = 7
	maximum = 49
Network latency average = 23.2703
	minimum = 7
	maximum = 49
Slowest packet = 32213
Flit latency average = 23.2703
	minimum = 7
	maximum = 49
Slowest flit = 32213
Fragmentation average = 0
	minimum = 0
	maximum = 0
Injected packet rate average = 0.00925
	minimum = 0.004 (at node 4)
	maximum = 0.018 (at node 14)
Accepted packet rate average = 0.00925
	minimum = 0 (at node 0)
	maximum = 0.148 (at node 15)
Injected flit rate average = 0.00925
	minimum = 0.004 (at node 4)
	maximum = 0.018 (at node 14)
Accepted flit rate average= 0.00925
	minimum = 0 (at node 0)
	maximum = 0.148 (at node 15)
Injected packet length average = 1
Accepted packet length average = 1
Total in-flight flits = 3 (0 measured)
latency change    = 0.0425693
throughput change = 0.0878378
Warmed up ...Time used is 1500 cycles
Class 0:
Packet latency average = 23.122
	minimum = 7
	maximum = 41
Network latency average = 23.122
	minimum = 7
	maximum = 41
Slowest packet = 32303
Flit latency average = 23.2
	minimum = 7
	maximum = 41
Slowest flit = 32303
Fragmentation average = 0
	minimum = 0
	maximum = 0
Injected packet rate average = 0.0105
	minimum = 0 (at node 12)
	maximum = 0.02 (at node 2)
Accepted packet rate average = 0.010625
	minimum = 0 (at node 0)
	maximum = 0.17 (at node 15)
Injected flit rate average = 0.0105
	minimum = 0 (at node 12)
	maximum = 0.02 (at node 2)
Accepted flit rate average= 0.010625
	minimum = 0 (at node 0)
	maximum = 0.17 (at node 15)
Injected packet length average = 1
Accepted packet length average = 1
Total in-flight flits = 2 (2 measured)
latency change    = 0.00641464
throughput change = 0.129412
Class 0:
Packet latency average = 24.2012
	minimum = 7
	maximum = 52
Network latency average = 24.2012
	minimum = 7
	maximum = 52
Slowest packet = 32411
Flit latency average = 24.2216
	minimum = 7
	maximum = 52
Slowest flit = 32411
Fragmentation average = 0
	minimum = 0
	maximum = 0
Injected packet rate average = 0.0103125
	minimum = 0.004 (at node 12)
	maximum = 0.019 (at node 2)
Accepted packet rate average = 0.0104375
	minimum = 0 (at node 0)
	maximum = 0.167 (at node 15)
Injected flit rate average = 0.0103125
	minimum = 0.004 (at node 12)
	maximum = 0.019 (at node 2)
Accepted flit rate average= 0.0104375
	minimum = 0 (at node 0)
	maximum = 0.167 (at node 15)
Injected packet length average = 1
Accepted packet length average = 1
Total in-flight flits = 1 (1 measured)
latency change    = 0.0445956
throughput change = 0.0179641
Class 0:
Packet latency average = 23.6867
	minimum = 7
	maximum = 52
Network latency average = 23.6867
	minimum = 7
	maximum = 52
Slowest packet = 32411
Flit latency average = 23.7076
	minimum = 7
	maximum = 52
Slowest flit = 32411
Fragmentation average = 0
	minimum = 0
	maximum = 0
Injected packet rate average = 0.01
	minimum = 0.006 (at node 10)
	maximum = 0.0153333 (at node 2)
Accepted packet rate average = 0.00983333
	minimum = 0 (at node 0)
	maximum = 0.157333 (at node 15)
Injected flit rate average = 0.01
	minimum = 0.006 (at node 10)
	maximum = 0.0153333 (at node 2)
Accepted flit rate average= 0.00983333
	minimum = 0 (at node 0)
	maximum = 0.157333 (at node 15)
Injected packet length average = 1
Accepted packet length average = 1
Total in-flight flits = 7 (7 measured)
latency change    = 0.0217221
throughput change = 0.0614407
Class 0:
Packet latency average = 24.5364
	minimum = 7
	maximum = 52
Network latency average = 24.5364
	minimum = 7
	maximum = 52
Slowest packet = 32411
Flit latency average = 24.5435
	minimum = 7
	maximum = 52
Slowest flit = 32411
Fragmentation average = 0
	minimum = 0
	maximum = 0
Injected packet rate average = 0.0105625
	minimum = 0.0065 (at node 10)
	maximum = 0.014 (at node 2)
Accepted packet rate average = 0.0104063
	minimum = 0 (at node 0)
	maximum = 0.1665 (at node 15)
Injected flit rate average = 0.0105625
	minimum = 0.0065 (at node 10)
	maximum = 0.014 (at node 2)
Accepted flit rate average= 0.0104063
	minimum = 0 (at node 0)
	maximum = 0.1665 (at node 15)
Injected packet length average = 1
Accepted packet length average = 1
Total in-flight flits = 8 (8 measured)
latency change    = 0.0346289
throughput change = 0.0550551
Class 0:
Packet latency average = 24.6216
	minimum = 7
	maximum = 67
Network latency average = 24.6216
	minimum = 7
	maximum = 67
Slowest packet = 32601
Flit latency average = 24.6269
	minimum = 7
	maximum = 67
Slowest flit = 32601
Fragmentation average = 0
	minimum = 0
	maximum = 0
Injected packet rate average = 0.010075
	minimum = 0.006 (at node 10)
	maximum = 0.0136 (at node 13)
Accepted packet rate average = 0.01005
	minimum = 0 (at node 0)
	maximum = 0.1608 (at node 15)
Injected flit rate average = 0.010075
	minimum = 0.006 (at node 10)
	maximum = 0.0136 (at node 13)
Accepted flit rate average= 0.01005
	minimum = 0 (at node 0)
	maximum = 0.1608 (at node 15)
Injected packet length average = 1
Accepted packet length average = 1
Total in-flight flits = 4 (4 measured)
latency change    = 0.00345999
throughput change = 0.0354478
Class 0:
Packet latency average = 24.3685
	minimum = 7
	maximum = 67
Network latency average = 24.3685
	minimum = 7
	maximum = 67
Slowest packet = 32601
Flit latency average = 24.3745
	minimum = 7
	maximum = 67
Slowest flit = 32601
Fragmentation average = 0
	minimum = 0
	maximum = 0
Injected packet rate average = 0.0101458
	minimum = 0.006 (at node 12)
	maximum = 0.013 (at node 13)
Accepted packet rate average = 0.010125
	minimum = 0 (at node 0)
	maximum = 0.162 (at node 15)
Injected flit rate average = 0.0101458
	minimum = 0.006 (at node 12)
	maximum = 0.013 (at node 13)
Accepted flit rate average= 0.010125
	minimum = 0 (at node 0)
	maximum = 0.162 (at node 15)
Injected packet length average = 1
Accepted packet length average = 1
Total in-flight flits = 4 (4 measured)
latency change    = 0.0103832
throughput change = 0.00740741
Class 0:
Packet latency average = 23.975
	minimum = 7
	maximum = 67
Network latency average = 23.975
	minimum = 7
	maximum = 67
Slowest packet = 32601
Flit latency average = 23.9822
	minimum = 7
	maximum = 67
Slowest flit = 32601
Fragmentation average = 0
	minimum = 0
	maximum = 0
Injected packet rate average = 0.0100714
	minimum = 0.00628571 (at node 12)
	maximum = 0.014 (at node 13)
Accepted packet rate average = 0.0100536
	minimum = 0 (at node 0)
	maximum = 0.160857 (at node 15)
Injected flit rate average = 0.0100714
	minimum = 0.00628571 (at node 12)
	maximum = 0.014 (at node 13)
Accepted flit rate average= 0.0100536
	minimum = 0 (at node 0)
	maximum = 0.160857 (at node 15)
Injected packet length average = 1
Accepted packet length average = 1
Total in-flight flits = 4 (4 measured)
latency change    = 0.0164142
throughput change = 0.0071048
Draining all recorded packets ...
Draining remaining packets ...
Time taken is 5059 cycles
====== Overall Traffic Statistics ======
====== Traffic class 0 ======
Packet latency average = 24.3217 (50 samples)
	minimum = 7 (50 samples)
	maximum = 67.38 (50 samples)
Network latency average = 24.3217 (50 samples)
	minimum = 7 (50 samples)
	maximum = 67.38 (50 samples)
Flit latency average = 24.3704 (50 samples)
	minimum = 7 (50 samples)
	maximum = 67.38 (50 samples)
Fragmentation average = 0 (50 samples)
	minimum = 0 (50 samples)
	maximum = 0 (50 samples)
Injected packet rate average = 0.00999576 (50 samples)
	minimum = 0.00656933 (50 samples)
	maximum = 0.0135508 (50 samples)
Accepted packet rate average = 0.00999732 (50 samples)
	minimum = 0 (50 samples)
	maximum = 0.159957 (50 samples)
Injected flit rate average = 0.00999576 (50 samples)
	minimum = 0.00656933 (50 samples)
	maximum = 0.0135508 (50 samples)
Accepted flit rate average = 0.00999732 (50 samples)
	minimum = 0 (50 samples)
	maximum = 0.159957 (50 samples)
Injected packet size average = 1 (50 samples)
Accepted packet size average = 1 (50 samples)
Hops average = 4.00416 (50 samples)
Total run time 1.11583
