BEGIN Configuration File: /tmp/tmpys7xgj32.cfg
topology = mesh;
k = 4;
n = 2;
routing_function = planar_adapt;
num_vcs = 4;
vc_buf_size = 4;
wait_for_tail_credit = 1;
vc_allocator = islip;
sw_allocator = islip;
alloc_iters = 1;
credit_delay = 2;
routing_delay = 1;
vc_alloc_delay = 1;
sw_alloc_delay = 1;
input_speedup = 2;
output_speedup = 1;
internal_speedup = 1.0;
traffic = transpose;
packet_size = 1;
sim_type = latency;
injection_rate = 0.01;
warmup_periods = 3;
sample_period = 500;
sim_count = 50;
seed = 2;
link_failures = 7;
fail_seed = 202;

END Configuration File: /tmp/tmpys7xgj32.cfg
failure at node 4, channel 2 (1/7)
failure at node 13, channel 0 (2/7)
failure at node 6, channel 1 (3/7)
failure at node 11, channel 3 (4/7)
failure at node 9, channel 2 (5/7)
failure at node 15, channel 3 (6/7)
failure at node 4, channel 3 (7/7)
Class 0:
Packet latency average = 24.7097
	minimum = 7
	maximum = 57
Network latency average = 24.7097
	minimum = 7
	maximum = 57
Slowest packet = 6
Flit latency average = 24.7097
	minimum = 7
	maximum = 57
Slowest flit = 6
Fragmentation average = 0
	minimum = 0
	maximum = 0
Injected packet rate average = 0.008125
	minimum = 0 (at node 9)
	maximum = 0.014 (at node 5)
Accepted packet rate average = 0.00775
	minimum = 0 (at node 6)
	maximum = 0.014 (at node 5)
Injected flit rate average = 0.008125
	minimum = 0 (at node 9)
	maximum = 0.014 (at node 5)
Accepted flit rate average= 0.00775
	minimum = 0 (at node 6)
	maximum = 0.014 (at node 5)
Injected packet length average = 1
Accepted packet length average = 1
Total in-flight flits = 3 (0 measured)
latency change    = 1
throughput change = 1
Class 0:
Packet latency average = 24.3864
	minimum = 7
	maximum = 57
Network latency average = 24.3864
	minimum = 7
	maximum = 57
Slowest packet = 6
Flit latency average = 24.3864
	minimum = 7
	maximum = 57
Slowest flit = 6
Fragmentation average = 0
	minimum = 0
	maximum = 0
Injected packet rate average = 0.008625
	minimum = 0.003 (at node 2)
	maximum = 0.015 (at node 13)
Accepted packet rate average = 0.00825
	minimum = 0.003 (at node 6)
	maximum = 0.013 (at node 7)
Injected flit rate average = 0.008625
	minimum = 0.003 (at node 2)
	maximum = 0.015 (at node 13)
Accepted flit rate average= 0.00825
	minimum = 0.003 (at node 6)
	maximum = 0.013 (at node 7)
Injected packet length average = 1
Accepted packet length average = 1
Total in-flight flits = 6 (0 measured)
latency change    = 0.013258
throughput change = 0.0606061
Class 0:
Packet latency average = 26.1412
	minimum = 7
	maximum = 67
Network latency average = 26.1412
	minimum = 7
	maximum = 67
Slowest packet = 135
Flit latency average = 26.1412
	minimum = 7
	maximum = 67
Slowest flit = 135
Fragmentation average = 0
	minimum = 0
	maximum = 0
Injected packet rate average = 0.01
	minimum = 0.002 (at node 3)
	maximum = 0.022 (at node 13)
Accepted packet rate average = 0.010625
	minimum = 0.002 (at node 4)
	maximum = 0.026 (at node 7)
Injected flit rate average = 0.01
	minimum = 0.002 (at node 3)
	maximum = 0.022 (at node 13)
Accepted flit rate average= 0.010625
	minimum = 0.002 (at node 4)
	maximum = 0.026 (at node 7)
Injected packet length average = 1
Accepted packet length average = 1
Total in-flight flits = 1 (0 measured)
latency change    = 0.0671283
throughput change = 0.223529
Warmed up ...Time used is 1500 cycles
Class 0:
Packet latency average = 24.5402
	minimum = 7
	maximum = 58
Network latency average = 24.5402
	minimum = 7
	maximum = 58
Slowest packet = 227
Flit latency average = 24.4545
	minimum = 7
	maximum = 58
Slowest flit = 227
Fragmentation average = 0
	minimum = 0
	maximum = 0
Injected packet rate average = 0.01125
	minimum = 0.004 (at node 15)
	maximum = 0.022 (at node 10)
Accepted packet rate average = 0.011
	minimum = 0.004 (at node 8)
	maximum = 0.022 (at node 10)
Injected flit rate average = 0.01125
	minimum = 0.004 (at node 15)
	maximum = 0.022 (at node 10)
Accepted flit rate average= 0.011
	minimum = 0.004 (at node 8)
	maximum = 0.022 (at node 10)
Injected packet length average = 1
Accepted packet length average = 1
Total in-flight flits = 3 (3 measured)
latency change    = 0.0652376
throughput change = 0.0340909
Class 0:
Packet latency average = 25.8434
	minimum = 7
	maximum = 58
Network latency average = 25.8434
	minimum = 7
	maximum = 58
Slowest packet = 227
Flit latency average = 25.7904
	minimum = 7
	maximum = 58
Slowest flit = 227
Fragmentation average = 0
	minimum = 0
	maximum = 0
Injected packet rate average = 0.0105
	minimum = 0.006 (at node 2)
	maximum = 0.015 (at node 3)
Accepted packet rate average = 0.0104375
	minimum = 0.006 (at node 8)
	maximum = 0.015 (at node 10)
Injected flit rate average = 0.0105
	minimum = 0.006 (at node 2)
	maximum = 0.015 (at node 3)
Accepted flit rate average= 0.0104375
	minimum = 0.006 (at node 8)
	maximum = 0.015 (at node 10)
Injected packet length average = 1
Accepted packet length average = 1
Total in-flight flits = 2 (2 measured)
latency change    = 0.0504247
throughput change = 0.0538922
Class 0:
Packet latency average = 26.1983
	minimum = 7
	maximum = 66
Network latency average = 26.1983
	minimum = 7
	maximum = 66
Slowest packet = 422
Flit latency average = 26.1588
	minimum = 7
	maximum = 66
Slowest flit = 422
Fragmentation average = 0
	minimum = 0
	maximum = 0
Injected packet rate average = 0.00983333
	minimum = 0.00666667 (at node 1)
	maximum = 0.0153333 (at node 3)
Accepted packet rate average = 0.00970833
	minimum = 0.00666667 (at node 2)
	maximum = 0.0146667 (at node 12)
Injected flit rate average = 0.00983333
	minimum = 0.00666667 (at node 1)
	maximum = 0.0153333 (at node 3)
Accepted flit rate average= 0.00970833
	minimum = 0.00666667 (at node 2)
	maximum = 0.0146667 (at node 12)
Injected packet length average = 1
Accepted packet length average = 1
Total in-flight flits = 4 (4 measured)
latency change    = 0.0135468
throughput change = 0.0751073
Class 0:
Packet latency average = 26.2219
	minimum = 7
	maximum = 72
Network latency average = 26.2219
	minimum = 7
	maximum = 72
Slowest packet = 465
Flit latency average = 26.1931
	minimum = 7
	maximum = 72
Slowest flit = 465
Fragmentation average = 0
	minimum = 0
	maximum = 0
Injected packet rate average = 0.0101875
	minimum = 0.0065 (at node 8)
	maximum = 0.014 (at node 10)
Accepted packet rate average = 0.0100313
	minimum = 0.0065 (at node 2)
	maximum = 0.014 (at node 10)
Injected flit rate average = 0.0101875
	minimum = 0.0065 (at node 8)
	maximum = 0.014 (at node 10)
Accepted flit rate average= 0.0100313
	minimum = 0.0065 (at node 2)
	maximum = 0.014 (at node 10)
Injected packet length average = 1
Accepted packet length average = 1
Total in-flight flits = 6 (6 measured)
latency change    = 0.000899979
throughput change = 0.0321911
Class 0:
Packet latency average = 26.2334
	minimum = 7
	maximum = 72
Network latency average = 26.2334
	minimum = 7
	maximum = 72
Slowest packet = 465
Flit latency average = 26.2108
	minimum = 7
	maximum = 72
Slowest flit = 465
Fragmentation average = 0
	minimum = 0
	maximum = 0
Injected packet rate average = 0.010275
	minimum = 0.0076 (at node 1)
	maximum = 0.0136 (at node 12)
Accepted packet rate average = 0.0102
	minimum = 0.0076 (at node 2)
	maximum = 0.0132 (at node 10)
Injected flit rate average = 0.010275
	minimum = 0.0076 (at node 1)
	maximum = 0.0136 (at node 12)
Accepted flit rate average= 0.0102
	minimum = 0.0076 (at node 2)
	maximum = 0.0132 (at node 10)
Injected packet length average = 1
Accepted packet length average = 1
Total in-flight flits = 4 (4 measured)
latency change    = 0.000439906
throughput change = 0.0165441
Class 0:
Packet latency average = 25.8973
	minimum = 7
	maximum = 72
Network latency average = 25.8973
	minimum = 7
	maximum = 72
Slowest packet = 465
Flit latency average = 25.8791
	minimum = 7
	maximum = 72
Slowest flit = 465
Fragmentation average = 0
	minimum = 0
	maximum = 0
Injected packet rate average = 0.0103125
	minimum = 0.00766667 (at node 1)
	maximum = 0.0136667 (at node 10)
Accepted packet rate average = 0.0101667
	minimum = 0.00766667 (at node 8)
	maximum = 0.0133333 (at node 10)
Injected flit rate average = 0.0103125
	minimum = 0.00766667 (at node 1)
	maximum = 0.0136667 (at node 10)
Accepted flit rate average= 0.0101667
	minimum = 0.00766667 (at node 8)
	maximum = 0.0133333 (at node 10)
Injected packet length average = 1
Accepted packet length average = 1
Total in-flight flits = 8 (8 measured)
latency change    = 0.0129776
throughput change = 0.00327869
Draining all recorded packets ...
Draining remaining packets ...
Time taken is 4563 cycles
Class 0:
Packet latency average = 21.7059
	minimum = 7
	maximum = 57
Network latency average = 21.7059
	minimum = 7
	maximum = 57
Slowest packet = 731
Flit latency average = 21.7059
	minimum = 7
	maximum = 57
Slowest flit = 731
Fragmentation average = 0
	minimum = 0
	maximum = 0
Injected packet rate average = 0.009
	minimum = 0.004 (at node 13)
	maximum = 0.026 (at node 5)
Accepted packet rate average = 0.0085
	minimum = 0.004 (at node 7)
	maximum = 0.026 (at node 5)
Injected flit rate average = 0.009
	minimum = 0.004 (at node 13)
	maximum = 0.026 (at node 5)
Accepted flit rate average= 0.0085
	minimum = 0.004 (at node 7)
	maximum = 0.026 (at node 5)
Injected packet length average = 1
Accepted packet length average = 1
Total in-flight flits = 4 (0 measured)
latency change    = 1
throughput change = 1
Class 0:
Packet latency average = 22.6203
	minimum = 7
	maximum = 57
Network latency average = 22.6203
	minimum = 7
	maximum = 57
Slowest packet = 731
Flit latency average = 22.6203
	minimum = 7
	maximum = 57
Slowest flit = 731
Fragmentation average = 0
	minimum = 0
	maximum = 0
Injected packet rate average = 0.0100625
	minimum = 0.005 (at node 2)
	maximum = 0.018 (at node 5)
Accepted packet rate average = 0.009875
	minimum = 0.005 (at node 2)
	maximum = 0.018 (at node 5)
Injected flit rate average = 0.0100625
	minimum = 0.005 (at node 2)
	maximum = 0.018 (at node 5)
Accepted flit rate average= 0.009875
	minimum = 0.005 (at node 2)
	maximum = 0.018 (at node 5)
Injected packet length average = 1
Accepted packet length average = 1
Total in-flight flits = 3 (0 measured)
latency change    = 0.0404227
throughput change = 0.139241
Class 0:
Packet latency average = 27.3649
	minimum = 7
	maximum = 65
Network latency average = 27.3649
	minimum = 7
	maximum = 65
Slowest packet = 904
Flit latency average = 27.3649
	minimum = 7
	maximum = 65
Slowest flit = 904
Fragmentation average = 0
	minimum = 0
	maximum = 0
Injected packet rate average = 0.009625
	minimum = 0.004 (at node 1)
	maximum = 0.018 (at node 9)
Accepted packet rate average = 0.00925
	minimum = 0.004 (at node 4)
	maximum = 0.014 (at node 6)
Injected flit rate average = 0.009625
	minimum = 0.004 (at node 1)
	maximum = 0.018 (at node 9)
Accepted flit rate average= 0.00925
	minimum = 0.004 (at node 4)
	maximum = 0.014 (at node 6)
Injected packet length average = 1
Accepted packet length average = 1
Total in-flight flits = 6 (0 measured)
latency change    = 0.173383
throughput change = 0.0675676
Warmed up ...Time used is 1500 cycles
Class 0:
Packet latency average = 25.506
	minimum = 7
	maximum = 64
Network latency average = 25.506
	minimum = 7
	maximum = 64
Slowest packet = 975
Flit latency average = 25.9438
	minimum = 7
	maximum = 64
Slowest flit = 975
Fragmentation average = 0
	minimum = 0
	maximum = 0
Injected packet rate average = 0.010875
	minimum = 0.004 (at node 6)
	maximum = 0.016 (at node 5)
Accepted packet rate average = 0.011125
	minimum = 0.004 (at node 9)
	maximum = 0.018 (at node 13)
Injected flit rate average = 0.010875
	minimum = 0.004 (at node 6)
	maximum = 0.016 (at node 5)
Accepted flit rate average= 0.011125
	minimum = 0.004 (at node 9)
	maximum = 0.018 (at node 13)
Injected packet length average = 1
Accepted packet length average = 1
Total in-flight flits = 4 (4 measured)
latency change    = 0.0728785
throughput change = 0.168539
Class 0:
Packet latency average = 26.5029
	minimum = 7
	maximum = 71
Network latency average = 26.5029
	minimum = 7
	maximum = 71
Slowest packet = 1028
Flit latency average = 26.6872
	minimum = 7
	maximum = 71
Slowest flit = 1028
Fragmentation average = 0
	minimum = 0
	maximum = 0
Injected packet rate average = 0.0109375
	minimum = 0.007 (at node 6)
	maximum = 0.015 (at node 5)
Accepted packet rate average = 0.0111875
	minimum = 0.007 (at node 9)
	maximum = 0.015 (at node 5)
Injected flit rate average = 0.0109375
	minimum = 0.007 (at node 6)
	maximum = 0.015 (at node 5)
Accepted flit rate average= 0.0111875
	minimum = 0.007 (at node 9)
	maximum = 0.015 (at node 5)
Injected packet length average = 1
Accepted packet length average = 1
Total in-flight flits = 2 (2 measured)
latency change    = 0.0376135
throughput change = 0.00558659
Class 0:
Packet latency average = 25.752
	minimum = 7
	maximum = 71
Network latency average = 25.752
	minimum = 7
	maximum = 71
Slowest packet = 1028
Flit latency average = 25.8962
	minimum = 7
	maximum = 71
Slowest flit = 1028
Fragmentation average = 0
	minimum = 0
	maximum = 0
Injected packet rate average = 0.01075
	minimum = 0.00866667 (at node 2)
	maximum = 0.0153333 (at node 5)
Accepted packet rate average = 0.0108333
	minimum = 0.008 (at node 2)
	maximum = 0.0153333 (at node 5)
Injected flit rate average = 0.01075
	minimum = 0.00866667 (at node 2)
	maximum = 0.0153333 (at node 5)
Accepted flit rate average= 0.0108333
	minimum = 0.008 (at node 2)
	maximum = 0.0153333 (at node 5)
Injected packet length average = 1
Accepted packet length average = 1
Total in-flight flits = 4 (4 measured)
latency change    = 0.0291598
throughput change = 0.0326923
Class 0:
Packet latency average = 25.9299
	minimum = 7
	maximum = 71
Network latency average = 25.9299
	minimum = 7
	maximum = 71
Slowest packet = 1028
Flit latency average = 26.0389
	minimum = 7
	maximum = 71
Slowest flit = 1028
Fragmentation average = 0
	minimum = 0
	maximum = 0
Injected packet rate average = 0.0104063
	minimum = 0.008 (at node 6)
	maximum = 0.015 (at node 3)
Accepted packet rate average = 0.0104375
	minimum = 0.008 (at node 9)
	maximum = 0.014 (at node 12)
Injected flit rate average = 0.0104063
	minimum = 0.008 (at node 6)
	maximum = 0.015 (at node 3)
Accepted flit rate average= 0.0104375
	minimum = 0.008 (at node 9)
	maximum = 0.014 (at node 12)
Injected packet length average = 1
Accepted packet length average = 1
Total in-flight flits = 5 (5 measured)
latency change    = 0.00686118
throughput change = 0.0379242
Draining all recorded packets ...
Draining remaining packets ...
Time taken is 3590 cycles
Class 0:
Packet latency average = 26.2361
	minimum = 7
	maximum = 57
Network latency average = 26.2361
	minimum = 7
	maximum = 57
Slowest packet = 1300
Flit latency average = 26.2361
	minimum = 7
	maximum = 57
Slowest flit = 1300
Fragmentation average = 0
	minimum = 0
	maximum = 0
Injected packet rate average = 0.0095
	minimum = 0.002 (at node 11)
	maximum = 0.016 (at node 1)
Accepted packet rate average = 0.009
	minimum = 0.002 (at node 14)
	maximum = 0.014 (at node 4)
Injected flit rate average = 0.0095
	minimum = 0.002 (at node 11)
	maximum = 0.016 (at node 1)
Accepted flit rate average= 0.009
	minimum = 0.002 (at node 14)
	maximum = 0.014 (at node 4)
Injected packet length average = 1
Accepted packet length average = 1
Total in-flight flits = 4 (0 measured)
latency change    = 1
throughput change = 1
Class 0:
Packet latency average = 26.1576
	minimum = 7
	maximum = 57
Network latency average = 26.1576
	minimum = 7
	maximum = 57
Slowest packet = 1300
Flit latency average = 26.1576
	minimum = 7
	maximum = 57
Slowest flit = 1300
Fragmentation average = 0
	minimum = 0
	maximum = 0
Injected packet rate average = 0.0104375
	minimum = 0.006 (at node 5)
	maximum = 0.015 (at node 8)
Accepted packet rate average = 0.0103125
	minimum = 0.006 (at node 5)
	maximum = 0.015 (at node 15)
Injected flit rate average = 0.0104375
	minimum = 0.006 (at node 5)
	maximum = 0.015 (at node 8)
Accepted flit rate average= 0.0103125
	minimum = 0.006 (at node 5)
	maximum = 0.015 (at node 15)
Injected packet length average = 1
Accepted packet length average = 1
Total in-flight flits = 2 (0 measured)
latency change    = 0.00300239
throughput change = 0.127273
Class 0:
Packet latency average = 21.413
	minimum = 7
	maximum = 65
Network latency average = 21.413
	minimum = 7
	maximum = 65
Slowest packet = 1540
Flit latency average = 21.413
	minimum = 7
	maximum = 65
Slowest flit = 1540
Fragmentation average = 0
	minimum = 0
	maximum = 0
Injected packet rate average = 0.0115
	minimum = 0 (at node 7)
	maximum = 0.024 (at node 0)
Accepted packet rate average = 0.0115
	minimum = 0 (at node 7)
	maximum = 0.024 (at node 0)
Injected flit rate average = 0.0115
	minimum = 0 (at node 7)
	maximum = 0.024 (at node 0)
Accepted flit rate average= 0.0115
	minimum = 0 (at node 7)
	maximum = 0.024 (at node 0)
Injected packet length average = 1
Accepted packet length average = 1
Total in-flight flits = 2 (0 measured)
latency change    = 0.221572
throughput change = 0.103261
Warmed up ...Time used is 1500 cycles
Class 0:
Packet latency average = 25.7802
	minimum = 7
	maximum = 64
Network latency average = 25.7802
	minimum = 7
	maximum = 64
Slowest packet = 1555
Flit latency average = 25.8387
	minimum = 7
	maximum = 64
Slowest flit = 1555
Fragmentation average = 0
	minimum = 0
	maximum = 0
Injected packet rate average = 0.01175
	minimum = 0.004 (at node 9)
	maximum = 0.022 (at node 14)
Accepted packet rate average = 0.011625
	minimum = 0.004 (at node 4)
	maximum = 0.022 (at node 11)
Injected flit rate average = 0.01175
	minimum = 0.004 (at node 9)
	maximum = 0.022 (at node 14)
Accepted flit rate average= 0.011625
	minimum = 0.004 (at node 4)
	maximum = 0.022 (at node 11)
Injected packet length average = 1
Accepted packet length average = 1
Total in-flight flits = 3 (3 measured)
latency change    = 0.1694
throughput change = 0.0107527
Class 0:
Packet latency average = 26.1207
	minimum = 7
	maximum = 64
Network latency average = 26.1207
	minimum = 7
	maximum = 64
Slowest packet = 1555
Flit latency average = 26.1477
	minimum = 7
	maximum = 64
Slowest flit = 1555
Fragmentation average = 0
	minimum = 0
	maximum = 0
Injected packet rate average = 0.011375
	minimum = 0.005 (at node 3)
	maximum = 0.019 (at node 14)
Accepted packet rate average = 0.011
	minimum = 0.005 (at node 12)
	maximum = 0.019 (at node 11)
Injected flit rate average = 0.011375
	minimum = 0.005 (at node 3)
	maximum = 0.019 (at node 14)
Accepted flit rate average= 0.011
	minimum = 0.005 (at node 12)
	maximum = 0.019 (at node 11)
Injected packet length average = 1
Accepted packet length average = 1
Total in-flight flits = 8 (8 measured)
latency change    = 0.0130345
throughput change = 0.0568182
Class 0:
Packet latency average = 26.8885
	minimum = 7
	maximum = 64
Network latency average = 26.8885
	minimum = 7
	maximum = 64
Slowest packet = 1555
Flit latency average = 26.9004
	minimum = 7
	maximum = 64
Slowest flit = 1555
Fragmentation average = 0
	minimum = 0
	maximum = 0
Injected packet rate average = 0.0114167
	minimum = 0.00466667 (at node 1)
	maximum = 0.018 (at node 6)
Accepted packet rate average = 0.0112917
	minimum = 0.00466667 (at node 4)
	maximum = 0.018 (at node 9)
Injected flit rate average = 0.0114167
	minimum = 0.00466667 (at node 1)
	maximum = 0.018 (at node 6)
Accepted flit rate average= 0.0112917
	minimum = 0.00466667 (at node 4)
	maximum = 0.018 (at node 9)
Injected packet length average = 1
Accepted packet length average = 1
Total in-flight flits = 5 (5 measured)
latency change    = 0.0285545
throughput change = 0.0258303
Class 0:
Packet latency average = 26.352
	minimum = 7
	maximum = 64
Network latency average = 26.352
	minimum = 7
	maximum = 64
Slowest packet = 1555
Flit latency average = 26.3639
	minimum = 7
	maximum = 64
Slowest flit = 1555
Fragmentation average = 0
	minimum = 0
	maximum = 0
Injected packet rate average = 0.0113125
	minimum = 0.006 (at node 9)
	maximum = 0.0155 (at node 6)
Accepted packet rate average = 0.01125
	minimum = 0.0065 (at node 6)
	maximum = 0.0155 (at node 9)
Injected flit rate average = 0.0113125
	minimum = 0.006 (at node 9)
	maximum = 0.0155 (at node 6)
Accepted flit rate average= 0.01125
	minimum = 0.0065 (at node 6)
	maximum = 0.0155 (at node 9)
Injected packet length average = 1
Accepted packet length average = 1
Total in-flight flits = 4 (4 measured)
latency change    = 0.0203598
throughput change = 0.0037037
Class 0:
Packet latency average = 26.138
	minimum = 7
	maximum = 64
Network latency average = 26.138
	minimum = 7
	maximum = 64
Slowest packet = 1555
Flit latency average = 26.1486
	minimum = 7
	maximum = 64
Slowest flit = 1555
Fragmentation average = 0
	minimum = 0
	maximum = 0
Injected packet rate average = 0.01105
	minimum = 0.0052 (at node 9)
	maximum = 0.0144 (at node 6)
Accepted packet rate average = 0.0111
	minimum = 0.0056 (at node 6)
	maximum = 0.0144 (at node 9)
Injected flit rate average = 0.01105
	minimum = 0.0052 (at node 9)
	maximum = 0.0144 (at node 6)
Accepted flit rate average= 0.0111
	minimum = 0.0056 (at node 6)
	maximum = 0.0144 (at node 9)
Injected packet length average = 1
Accepted packet length average = 1
Total in-flight flits = 0 (0 measured)
latency change    = 0.00818525
throughput change = 0.0135135
Draining all recorded packets ...
Draining remaining packets ...
Time taken is 4001 cycles
Class 0:
Packet latency average = 24.9859
	minimum = 7
	maximum = 60
Network latency average = 24.9859
	minimum = 7
	maximum = 60
Slowest packet = 2015
Flit latency average = 24.9859
	minimum = 7
	maximum = 60
Slowest flit = 2015
Fragmentation average = 0
	minimum = 0
	maximum = 0
Injected packet rate average = 0.009375
	minimum = 0.002 (at node 10)
	maximum = 0.014 (at node 6)
Accepted packet rate average = 0.008875
	minimum = 0.002 (at node 10)
	maximum = 0.014 (at node 9)
Injected flit rate average = 0.009375
	minimum = 0.002 (at node 10)
	maximum = 0.014 (at node 6)
Accepted flit rate average= 0.008875
	minimum = 0.002 (at node 10)
	maximum = 0.014 (at node 9)
Injected packet length average = 1
Accepted packet length average = 1
Total in-flight flits = 4 (0 measured)
latency change    = 1
throughput change = 1
Class 0:
Packet latency average = 25.6972
	minimum = 7
	maximum = 65
Network latency average = 25.6972
	minimum = 7
	maximum = 65
Slowest packet = 2072
Flit latency average = 25.6972
	minimum = 7
	maximum = 65
Slowest flit = 2072
Fragmentation average = 0
	minimum = 0
	maximum = 0
Injected packet rate average = 0.0091875
	minimum = 0.003 (at node 10)
	maximum = 0.014 (at node 0)
Accepted packet rate average = 0.008875
	minimum = 0.003 (at node 10)
	maximum = 0.014 (at node 0)
Injected flit rate average = 0.0091875
	minimum = 0.003 (at node 10)
	maximum = 0.014 (at node 0)
Accepted flit rate average= 0.008875
	minimum = 0.003 (at node 10)
	maximum = 0.014 (at node 0)
Injected packet length average = 1
Accepted packet length average = 1
Total in-flight flits = 5 (0 measured)
latency change    = 0.0276788
throughput change = 0
Class 0:
Packet latency average = 26.8352
	minimum = 7
	maximum = 57
Network latency average = 26.8352
	minimum = 7
	maximum = 57
Slowest packet = 2137
Flit latency average = 26.8352
	minimum = 7
	maximum = 57
Slowest flit = 2137
Fragmentation average = 0
	minimum = 0
	maximum = 0
Injected packet rate average = 0.011375
	minimum = 0.004 (at node 6)
	maximum = 0.022 (at node 14)
Accepted packet rate average = 0.011375
	minimum = 0.004 (at node 9)
	maximum = 0.02 (at node 6)
Injected flit rate average = 0.011375
	minimum = 0.004 (at node 6)
	maximum = 0.022 (at node 14)
Accepted flit rate average= 0.011375
	minimum = 0.004 (at node 9)
	maximum = 0.02 (at node 6)
Injected packet length average = 1
Accepted packet length average = 1
Total in-flight flits = 5 (0 measured)
latency change    = 0.0424064
throughput change = 0.21978
Warmed up ...Time used is 1500 cycles
Class 0:
Packet latency average = 26.48
	minimum = 7
	maximum = 59
Network latency average = 26.48
	minimum = 7
	maximum = 59
Slowest packet = 2277
Flit latency average = 27.6
	minimum = 7
	maximum = 59
Slowest flit = 2277
Fragmentation average = 0
	minimum = 0
	maximum = 0
Injected packet rate average = 0.009625
	minimum = 0.004 (at node 8)
	maximum = 0.016 (at node 4)
Accepted packet rate average = 0.01
	minimum = 0.004 (at node 2)
	maximum = 0.016 (at node 1)
Injected flit rate average = 0.009625
	minimum = 0.004 (at node 8)
	maximum = 0.016 (at node 4)
Accepted flit rate average= 0.01
	minimum = 0.004 (at node 2)
	maximum = 0.016 (at node 1)
Injected packet length average = 1
Accepted packet length average = 1
Total in-flight flits = 2 (2 measured)
latency change    = 0.0134126
throughput change = 0.1375
Class 0:
Packet latency average = 24.0733
	minimum = 7
	maximum = 59
Network latency average = 24.0733
	minimum = 7
	maximum = 59
Slowest packet = 2277
Flit latency average = 24.729
	minimum = 7
	maximum = 59
Slowest flit = 2277
Fragmentation average = 0
	minimum = 0
	maximum = 0
Injected packet rate average = 0.009625
	minimum = 0.005 (at node 3)
	maximum = 0.015 (at node 5)
Accepted packet rate average = 0.0096875
	minimum = 0.005 (at node 12)
	maximum = 0.015 (at node 5)
Injected flit rate average = 0.009625
	minimum = 0.005 (at node 3)
	maximum = 0.015 (at node 5)
Accepted flit rate average= 0.0096875
	minimum = 0.005 (at node 12)
	maximum = 0.015 (at node 5)
Injected packet length average = 1
Accepted packet length average = 1
Total in-flight flits = 4 (4 measured)
latency change    = 0.0999723
throughput change = 0.0322581
Class 0:
Packet latency average = 24.8122
	minimum = 7
	maximum = 60
Network latency average = 24.8122
	minimum = 7
	maximum = 60
Slowest packet = 2381
Flit latency average = 25.2308
	minimum = 7
	maximum = 60
Slowest flit = 2381
Fragmentation average = 0
	minimum = 0
	maximum = 0
Injected packet rate average = 0.00970833
	minimum = 0.006 (at node 3)
	maximum = 0.0126667 (at node 5)
Accepted packet rate average = 0.00975
	minimum = 0.006 (at node 2)
	maximum = 0.0126667 (at node 5)
Injected flit rate average = 0.00970833
	minimum = 0.006 (at node 3)
	maximum = 0.0126667 (at node 5)
Accepted flit rate average= 0.00975
	minimum = 0.006 (at node 2)
	maximum = 0.0126667 (at node 5)
Injected packet length average = 1
Accepted packet length average = 1
Total in-flight flits = 4 (4 measured)
latency change    = 0.0297794
throughput change = 0.00641026
Class 0:
Packet latency average = 24.567
	minimum = 7
	maximum = 60
Network latency average = 24.567
	minimum = 7
	maximum = 60
Slowest packet = 2381
Flit latency average = 24.8712
	minimum = 7
	maximum = 60
Slowest flit = 2381
Fragmentation average = 0
	minimum = 0
	maximum = 0
Injected packet rate average = 0.0101563
	minimum = 0.0065 (at node 3)
	maximum = 0.012 (at node 1)
Accepted packet rate average = 0.0101875
	minimum = 0.0065 (at node 12)
	maximum = 0.012 (at node 1)
Injected flit rate average = 0.0101563
	minimum = 0.0065 (at node 3)
	maximum = 0.012 (at node 1)
Accepted flit rate average= 0.0101875
	minimum = 0.0065 (at node 12)
	maximum = 0.012 (at node 1)
Injected packet length average = 1
Accepted packet length average = 1
Total in-flight flits = 4 (4 measured)
latency change    = 0.00998287
throughput change = 0.0429448
Class 0:
Packet latency average = 24.4185
	minimum = 7
	maximum = 61
Network latency average = 24.4185
	minimum = 7
	maximum = 61
Slowest packet = 2607
Flit latency average = 24.6587
	minimum = 7
	maximum = 61
Slowest flit = 2607
Fragmentation average = 0
	minimum = 0
	maximum = 0
Injected packet rate average = 0.0103
	minimum = 0.008 (at node 14)
	maximum = 0.0128 (at node 1)
Accepted packet rate average = 0.0104
	minimum = 0.008 (at node 12)
	maximum = 0.0128 (at node 4)
Injected flit rate average = 0.0103
	minimum = 0.008 (at node 14)
	maximum = 0.0128 (at node 1)
Accepted flit rate average= 0.0104
	minimum = 0.008 (at node 12)
	maximum = 0.0128 (at node 4)
Injected packet length average = 1
Accepted packet length average = 1
Total in-flight flits = 1 (1 measured)
latency change    = 0.00608091
throughput change = 0.0204327
Draining all recorded packets ...
Draining remaining packets ...
Time taken is 4007 cycles
Class 0:
Packet latency average = 27.6892
	minimum = 7
	maximum = 61
Network latency average = 27.6892
	minimum = 7
	maximum = 61
Slowest packet = 2656
Flit latency average = 27.6892
	minimum = 7
	maximum = 61
Slowest flit = 2656
Fragmentation average = 0
	minimum = 0
	maximum = 0
Injected packet rate average = 0.009875
	minimum = 0.004 (at node 7)
	maximum = 0.016 (at node 3)
Accepted packet rate average = 0.00925
	minimum = 0.004 (at node 10)
	maximum = 0.016 (at node 3)
Injected flit rate average = 0.009875
	minimum = 0.004 (at node 7)
	maximum = 0.016 (at node 3)
Accepted flit rate average= 0.00925
	minimum = 0.004 (at node 10)
	maximum = 0.016 (at node 3)
Injected packet length average = 1
Accepted packet length average = 1
Total in-flight flits = 5 (0 measured)
latency change    = 1
throughput change = 1
Class 0:
Packet latency average = 25.7872
	minimum = 7
	maximum = 61
Network latency average = 25.7872
	minimum = 7
	maximum = 61
Slowest packet = 2656
Flit latency average = 25.7872
	minimum = 7
	maximum = 61
Slowest flit = 2656
Fragmentation average = 0
	minimum = 0
	maximum = 0
Injected packet rate average = 0.0089375
	minimum = 0.002 (at node 7)
	maximum = 0.015 (at node 8)
Accepted packet rate average = 0.0088125
	minimum = 0.002 (at node 13)
	maximum = 0.015 (at node 2)
Injected flit rate average = 0.0089375
	minimum = 0.002 (at node 7)
	maximum = 0.015 (at node 8)
Accepted flit rate average= 0.0088125
	minimum = 0.002 (at node 13)
	maximum = 0.015 (at node 2)
Injected packet length average = 1
Accepted packet length average = 1
Total in-flight flits = 2 (0 measured)
latency change    = 0.0737557
throughput change = 0.0496454
Class 0:
Packet latency average = 25.2703
	minimum = 7
	maximum = 57
Network latency average = 25.2703
	minimum = 7
	maximum = 57
Slowest packet = 2788
Flit latency average = 25.2703
	minimum = 7
	maximum = 57
Slowest flit = 2788
Fragmentation average = 0
	minimum = 0
	maximum = 0
Injected packet rate average = 0.009375
	minimum = 0.002 (at node 8)
	maximum = 0.02 (at node 6)
Accepted packet rate average = 0.00925
	minimum = 0.002 (at node 2)
	maximum = 0.02 (at node 9)
Injected flit rate average = 0.009375
	minimum = 0.002 (at node 8)
	maximum = 0.02 (at node 6)
Accepted flit rate average= 0.00925
	minimum = 0.002 (at node 2)
	maximum = 0.02 (at node 9)
Injected packet length average = 1
Accepted packet length average = 1
Total in-flight flits = 3 (0 measured)
latency change    = 0.0204574
throughput change = 0.0472973
Warmed up ...Time used is 1500 cycles
Class 0:
Packet latency average = 23.12
	minimum = 7
	maximum = 57
Network latency average = 23.12
	minimum = 7
	maximum = 57
Slowest packet = 2886
Flit latency average = 23.5641
	minimum = 7
	maximum = 57
Slowest flit = 2886
Fragmentation average = 0
	minimum = 0
	maximum = 0
Injected packet rate average = 0.009625
	minimum = 0.004 (at node 3)
	maximum = 0.016 (at node 0)
Accepted packet rate average = 0.00975
	minimum = 0.004 (at node 10)
	maximum = 0.016 (at node 0)
Injected flit rate average = 0.009625
	minimum = 0.004 (at node 3)
	maximum = 0.016 (at node 0)
Accepted flit rate average= 0.00975
	minimum = 0.004 (at node 10)
	maximum = 0.016 (at node 0)
Injected packet length average = 1
Accepted packet length average = 1
Total in-flight flits = 2 (2 measured)
latency change    = 0.0930048
throughput change = 0.0512821
Class 0:
Packet latency average = 24.6028
	minimum = 7
	maximum = 62
Network latency average = 24.6028
	minimum = 7
	maximum = 62
Slowest packet = 2994
Flit latency average = 24.8125
	minimum = 7
	maximum = 62
Slowest flit = 2994
Fragmentation average = 0
	minimum = 0
	maximum = 0
Injected packet rate average = 0.008875
	minimum = 0.005 (at node 10)
	maximum = 0.015 (at node 0)
Accepted packet rate average = 0.009
	minimum = 0.005 (at node 10)
	maximum = 0.015 (at node 0)
Injected flit rate average = 0.008875
	minimum = 0.005 (at node 10)
	maximum = 0.015 (at node 0)
Accepted flit rate average= 0.009
	minimum = 0.005 (at node 10)
	maximum = 0.015 (at node 0)
Injected packet length average = 1
Accepted packet length average = 1
Total in-flight flits = 1 (1 measured)
latency change    = 0.060271
throughput change = 0.0833333
Class 0:
Packet latency average = 25.7389
	minimum = 7
	maximum = 62
Network latency average = 25.7389
	minimum = 7
	maximum = 62
Slowest packet = 2994
Flit latency average = 25.8689
	minimum = 7
	maximum = 62
Slowest flit = 2994
Fragmentation average = 0
	minimum = 0
	maximum = 0
Injected packet rate average = 0.00866667
	minimum = 0.00466667 (at node 10)
	maximum = 0.0126667 (at node 2)
Accepted packet rate average = 0.00858333
	minimum = 0.00466667 (at node 10)
	maximum = 0.012 (at node 8)
Injected flit rate average = 0.00866667
	minimum = 0.00466667 (at node 10)
	maximum = 0.0126667 (at node 2)
Accepted flit rate average= 0.00858333
	minimum = 0.00466667 (at node 10)
	maximum = 0.012 (at node 8)
Injected packet length average = 1
Accepted packet length average = 1
Total in-flight flits = 5 (5 measured)
latency change    = 0.0441386
throughput change = 0.0485437
Class 0:
Packet latency average = 27.5105
	minimum = 7
	maximum = 67
Network latency average = 27.5105
	minimum = 7
	maximum = 67
Slowest packet = 3106
Flit latency average = 27.5848
	minimum = 7
	maximum = 67
Slowest flit = 3106
Fragmentation average = 0
	minimum = 0
	maximum = 0
Injected packet rate average = 0.00909375
	minimum = 0.0045 (at node 10)
	maximum = 0.014 (at node 12)
Accepted packet rate average = 0.00903125
	minimum = 0.0045 (at node 10)
	maximum = 0.0135 (at node 3)
Injected flit rate average = 0.00909375
	minimum = 0.0045 (at node 10)
	maximum = 0.014 (at node 12)
Accepted flit rate average= 0.00903125
	minimum = 0.0045 (at node 10)
	maximum = 0.0135 (at node 3)
Injected packet length average = 1
Accepted packet length average = 1
Total in-flight flits = 5 (5 measured)
latency change    = 0.0643963
throughput change = 0.0495963
Class 0:
Packet latency average = 27.1346
	minimum = 7
	maximum = 67
Network latency average = 27.1346
	minimum = 7
	maximum = 67
Slowest packet = 3106
Flit latency average = 27.1962
	minimum = 7
	maximum = 67
Slowest flit = 3106
Fragmentation average = 0
	minimum = 0
	maximum = 0
Injected packet rate average = 0.009225
	minimum = 0.0064 (at node 10)
	maximum = 0.014 (at node 12)
Accepted packet rate average = 0.009175
	minimum = 0.0064 (at node 10)
	maximum = 0.014 (at node 3)
Injected flit rate average = 0.009225
	minimum = 0.0064 (at node 10)
	maximum = 0.014 (at node 12)
Accepted flit rate average= 0.009175
	minimum = 0.0064 (at node 10)
	maximum = 0.014 (at node 3)
Injected packet length average = 1
Accepted packet length average = 1
Total in-flight flits = 5 (5 measured)
latency change    = 0.0138522
throughput change = 0.0156676
Class 0:
Packet latency average = 26.6301
	minimum = 7
	maximum = 67
Network latency average = 26.6301
	minimum = 7
	maximum = 67
Slowest packet = 3106
Flit latency average = 26.6816
	minimum = 7
	maximum = 67
Slowest flit = 3106
Fragmentation average = 0
	minimum = 0
	maximum = 0
Injected packet rate average = 0.00975
	minimum = 0.00766667 (at node 4)
	maximum = 0.014 (at node 12)
Accepted packet rate average = 0.00975
	minimum = 0.00766667 (at node 1)
	maximum = 0.014 (at node 3)
Injected flit rate average = 0.00975
	minimum = 0.00766667 (at node 4)
	maximum = 0.014 (at node 12)
Accepted flit rate average= 0.00975
	minimum = 0.00766667 (at node 1)
	maximum = 0.014 (at node 3)
Injected packet length average = 1
Accepted packet length average = 1
Total in-flight flits = 3 (3 measured)
latency change    = 0.018945
throughput change = 0.0589744
Class 0:
Packet latency average = 26.426
	minimum = 7
	maximum = 67
Network latency average = 26.426
	minimum = 7
	maximum = 67
Slowest packet = 3106
Flit latency average = 26.4709
	minimum = 7
	maximum = 67
Slowest flit = 3106
Fragmentation average = 0
	minimum = 0
	maximum = 0
Injected packet rate average = 0.00985714
	minimum = 0.00771429 (at node 10)
	maximum = 0.0134286 (at node 12)
Accepted packet rate average = 0.00982143
	minimum = 0.00771429 (at node 10)
	maximum = 0.0134286 (at node 3)
Injected flit rate average = 0.00985714
	minimum = 0.00771429 (at node 10)
	maximum = 0.0134286 (at node 12)
Accepted flit rate average= 0.00982143
	minimum = 0.00771429 (at node 10)
	maximum = 0.0134286 (at node 3)
Injected packet length average = 1
Accepted packet length average = 1
Total in-flight flits = 5 (5 measured)
latency change    = 0.00772527
throughput change = 0.00727273
Draining all recorded packets ...
Draining remaining packets ...
Time taken is 5070 cycles
Class 0:
Packet latency average = 25.4156
	minimum = 7
	maximum = 57
Network latency average = 25.4156
	minimum = 7
	maximum = 57
Slowest packet = 3444
Flit latency average = 25.4156
	minimum = 7
	maximum = 57
Slowest flit = 3444
Fragmentation average = 0
	minimum = 0
	maximum = 0
Injected packet rate average = 0.010375
	minimum = 0.006 (at node 1)
	maximum = 0.018 (at node 7)
Accepted packet rate average = 0.009625
	minimum = 0.004 (at node 6)
	maximum = 0.018 (at node 13)
Injected flit rate average = 0.010375
	minimum = 0.006 (at node 1)
	maximum = 0.018 (at node 7)
Accepted flit rate average= 0.009625
	minimum = 0.004 (at node 6)
	maximum = 0.018 (at node 13)
Injected packet length average = 1
Accepted packet length average = 1
Total in-flight flits = 6 (0 measured)
latency change    = 1
throughput change = 1
Class 0:
Packet latency average = 25.0692
	minimum = 7
	maximum = 62
Network latency average = 25.0692
	minimum = 7
	maximum = 62
Slowest packet = 3554
Flit latency average = 25.0692
	minimum = 7
	maximum = 62
Slowest flit = 3554
Fragmentation average = 0
	minimum = 0
	maximum = 0
Injected packet rate average = 0.010125
	minimum = 0.005 (at node 12)
	maximum = 0.015 (at node 13)
Accepted packet rate average = 0.0099375
	minimum = 0.005 (at node 3)
	maximum = 0.015 (at node 7)
Injected flit rate average = 0.010125
	minimum = 0.005 (at node 12)
	maximum = 0.015 (at node 13)
Accepted flit rate average= 0.0099375
	minimum = 0.005 (at node 3)
	maximum = 0.015 (at node 7)
Injected packet length average = 1
Accepted packet length average = 1
Total in-flight flits = 3 (0 measured)
latency change    = 0.0138178
throughput change = 0.0314465
Class 0:
Packet latency average = 25.3415
	minimum = 7
	maximum = 57
Network latency average = 25.3415
	minimum = 7
	maximum = 57
Slowest packet = 3621
Flit latency average = 25.3415
	minimum = 7
	maximum = 57
Slowest flit = 3621
Fragmentation average = 0
	minimum = 0
	maximum = 0
Injected packet rate average = 0.010125
	minimum = 0.002 (at node 10)
	maximum = 0.018 (at node 9)
Accepted packet rate average = 0.01025
	minimum = 0.002 (at node 10)
	maximum = 0.018 (at node 6)
Injected flit rate average = 0.010125
	minimum = 0.002 (at node 10)
	maximum = 0.018 (at node 9)
Accepted flit rate average= 0.01025
	minimum = 0.002 (at node 10)
	maximum = 0.018 (at node 6)
Injected packet length average = 1
Accepted packet length average = 1
Total in-flight flits = 2 (0 measured)
latency change    = 0.0107445
throughput change = 0.0304878
Warmed up ...Time used is 1500 cycles
Class 0:
Packet latency average = 27.6341
	minimum = 7
	maximum = 66
Network latency average = 27.6341
	minimum = 7
	maximum = 66
Slowest packet = 3674
Flit latency average = 27.5
	minimum = 7
	maximum = 66
Slowest flit = 3674
Fragmentation average = 0
	minimum = 0
	maximum = 0
Injected packet rate average = 0.0105
	minimum = 0.004 (at node 1)
	maximum = 0.018 (at node 12)
Accepted packet rate average = 0.0105
	minimum = 0.004 (at node 4)
	maximum = 0.018 (at node 7)
Injected flit rate average = 0.0105
	minimum = 0.004 (at node 1)
	maximum = 0.018 (at node 12)
Accepted flit rate average= 0.0105
	minimum = 0.004 (at node 4)
	maximum = 0.018 (at node 7)
Injected packet length average = 1
Accepted packet length average = 1
Total in-flight flits = 2 (2 measured)
latency change    = 0.0829656
throughput change = 0.0238095
Class 0:
Packet latency average = 26.8544
	minimum = 7
	maximum = 66
Network latency average = 26.8544
	minimum = 7
	maximum = 66
Slowest packet = 3674
Flit latency average = 26.7937
	minimum = 7
	maximum = 66
Slowest flit = 3674
Fragmentation average = 0
	minimum = 0
	maximum = 0
Injected packet rate average = 0.0103125
	minimum = 0.003 (at node 1)
	maximum = 0.016 (at node 12)
Accepted packet rate average = 0.01
	minimum = 0.003 (at node 4)
	maximum = 0.015 (at node 2)
Injected flit rate average = 0.0103125
	minimum = 0.003 (at node 1)
	maximum = 0.016 (at node 12)
Accepted flit rate average= 0.01
	minimum = 0.003 (at node 4)
	maximum = 0.015 (at node 2)
Injected packet length average = 1
Accepted packet length average = 1
Total in-flight flits = 7 (7 measured)
latency change    = 0.0290349
throughput change = 0.05
Class 0:
Packet latency average = 26.7844
	minimum = 7
	maximum = 66
Network latency average = 26.7844
	minimum = 7
	maximum = 66
Slowest packet = 3674
Flit latency average = 26.7409
	minimum = 7
	maximum = 66
Slowest flit = 3674
Fragmentation average = 0
	minimum = 0
	maximum = 0
Injected packet rate average = 0.009375
	minimum = 0.00466667 (at node 1)
	maximum = 0.0146667 (at node 12)
Accepted packet rate average = 0.00916667
	minimum = 0.004 (at node 4)
	maximum = 0.014 (at node 2)
Injected flit rate average = 0.009375
	minimum = 0.00466667 (at node 1)
	maximum = 0.0146667 (at node 12)
Accepted flit rate average= 0.00916667
	minimum = 0.004 (at node 4)
	maximum = 0.014 (at node 2)
Injected packet length average = 1
Accepted packet length average = 1
Total in-flight flits = 7 (7 measured)
latency change    = 0.00261446
throughput change = 0.0909091
Class 0:
Packet latency average = 26.2837
	minimum = 7
	maximum = 66
Network latency average = 26.2837
	minimum = 7
	maximum = 66
Slowest packet = 3674
Flit latency average = 26.2543
	minimum = 7
	maximum = 66
Slowest flit = 3674
Fragmentation average = 0
	minimum = 0
	maximum = 0
Injected packet rate average = 0.0091875
	minimum = 0.005 (at node 1)
	maximum = 0.013 (at node 8)
Accepted packet rate average = 0.00909375
	minimum = 0.005 (at node 4)
	maximum = 0.0135 (at node 2)
Injected flit rate average = 0.0091875
	minimum = 0.005 (at node 1)
	maximum = 0.013 (at node 8)
Accepted flit rate average= 0.00909375
	minimum = 0.005 (at node 4)
	maximum = 0.0135 (at node 2)
Injected packet length average = 1
Accepted packet length average = 1
Total in-flight flits = 5 (5 measured)
latency change    = 0.0190485
throughput change = 0.00801833
Class 0:
Packet latency average = 26.2772
	minimum = 7
	maximum = 66
Network latency average = 26.2772
	minimum = 7
	maximum = 66
Slowest packet = 3674
Flit latency average = 26.2541
	minimum = 7
	maximum = 66
Slowest flit = 3674
Fragmentation average = 0
	minimum = 0
	maximum = 0
Injected packet rate average = 0.00935
	minimum = 0.0068 (at node 2)
	maximum = 0.0136 (at node 12)
Accepted packet rate average = 0.00925
	minimum = 0.0064 (at node 8)
	maximum = 0.0132 (at node 3)
Injected flit rate average = 0.00935
	minimum = 0.0068 (at node 2)
	maximum = 0.0136 (at node 12)
Accepted flit rate average= 0.00925
	minimum = 0.0064 (at node 8)
	maximum = 0.0132 (at node 3)
Injected packet length average = 1
Accepted packet length average = 1
Total in-flight flits = 6 (6 measured)
latency change    = 0.000249765
throughput change = 0.0168919
Class 0:
Packet latency average = 26.8247
	minimum = 7
	maximum = 66
Network latency average = 26.8247
	minimum = 7
	maximum = 66
Slowest packet = 3674
Flit latency average = 26.8031
	minimum = 7
	maximum = 66
Slowest flit = 3674
Fragmentation average = 0
	minimum = 0
	maximum = 0
Injected packet rate average = 0.00935417
	minimum = 0.006 (at node 5)
	maximum = 0.014 (at node 12)
Accepted packet rate average = 0.0093125
	minimum = 0.006 (at node 5)
	maximum = 0.0136667 (at node 3)
Injected flit rate average = 0.00935417
	minimum = 0.006 (at node 5)
	maximum = 0.014 (at node 12)
Accepted flit rate average= 0.0093125
	minimum = 0.006 (at node 5)
	maximum = 0.0136667 (at node 3)
Injected packet length average = 1
Accepted packet length average = 1
Total in-flight flits = 4 (4 measured)
latency change    = 0.020412
throughput change = 0.00671141
Draining all recorded packets ...
Draining remaining packets ...
Time taken is 4546 cycles
Class 0:
Packet latency average = 26.4286
	minimum = 7
	maximum = 66
Network latency average = 26.4286
	minimum = 7
	maximum = 66
Slowest packet = 4117
Flit latency average = 26.4286
	minimum = 7
	maximum = 66
Slowest flit = 4117
Fragmentation average = 0
	minimum = 0
	maximum = 0
Injected packet rate average = 0.011125
	minimum = 0.004 (at node 12)
	maximum = 0.022 (at node 3)
Accepted packet rate average = 0.0105
	minimum = 0.002 (at node 3)
	maximum = 0.02 (at node 12)
Injected flit rate average = 0.011125
	minimum = 0.004 (at node 12)
	maximum = 0.022 (at node 3)
Accepted flit rate average= 0.0105
	minimum = 0.002 (at node 3)
	maximum = 0.02 (at node 12)
Injected packet length average = 1
Accepted packet length average = 1
Total in-flight flits = 5 (0 measured)
latency change    = 1
throughput change = 1
Class 0:
Packet latency average = 26.0119
	minimum = 7
	maximum = 66
Network latency average = 26.0119
	minimum = 7
	maximum = 66
Slowest packet = 4117
Flit latency average = 26.0119
	minimum = 7
	maximum = 66
Slowest flit = 4117
Fragmentation average = 0
	minimum = 0
	maximum = 0
Injected packet rate average = 0.0106875
	minimum = 0.003 (at node 12)
	maximum = 0.021 (at node 4)
Accepted packet rate average = 0.0105
	minimum = 0.003 (at node 3)
	maximum = 0.02 (at node 1)
Injected flit rate average = 0.0106875
	minimum = 0.003 (at node 12)
	maximum = 0.021 (at node 4)
Accepted flit rate average= 0.0105
	minimum = 0.003 (at node 3)
	maximum = 0.02 (at node 1)
Injected packet length average = 1
Accepted packet length average = 1
Total in-flight flits = 3 (0 measured)
latency change    = 0.0160183
throughput change = 0
Class 0:
Packet latency average = 25.3375
	minimum = 7
	maximum = 63
Network latency average = 25.3375
	minimum = 7
	maximum = 63
Slowest packet = 4345
Flit latency average = 25.3375
	minimum = 7
	maximum = 63
Slowest flit = 4345
Fragmentation average = 0
	minimum = 0
	maximum = 0
Injected packet rate average = 0.01
	minimum = 0.006 (at node 8)
	maximum = 0.016 (at node 10)
Accepted packet rate average = 0.01
	minimum = 0.006 (at node 2)
	maximum = 0.016 (at node 10)
Injected flit rate average = 0.01
	minimum = 0.006 (at node 8)
	maximum = 0.016 (at node 10)
Accepted flit rate average= 0.01
	minimum = 0.006 (at node 2)
	maximum = 0.016 (at node 10)
Injected packet length average = 1
Accepted packet length average = 1
Total in-flight flits = 3 (0 measured)
latency change    = 0.0266169
throughput change = 0.05
Warmed up ...Time used is 1500 cycles
Class 0:
Packet latency average = 25.9
	minimum = 7
	maximum = 63
Network latency average = 25.9
	minimum = 7
	maximum = 63
Slowest packet = 4411
Flit latency average = 25.6129
	minimum = 7
	maximum = 63
Slowest flit = 4411
Fragmentation average = 0
	minimum = 0
	maximum = 0
Injected packet rate average = 0.011625
	minimum = 0.006 (at node 4)
	maximum = 0.02 (at node 9)
Accepted packet rate average = 0.011625
	minimum = 0.006 (at node 11)
	maximum = 0.022 (at node 6)
Injected flit rate average = 0.011625
	minimum = 0.006 (at node 4)
	maximum = 0.02 (at node 9)
Accepted flit rate average= 0.011625
	minimum = 0.006 (at node 11)
	maximum = 0.022 (at node 6)
Injected packet length average = 1
Accepted packet length average = 1
Total in-flight flits = 3 (3 measured)
latency change    = 0.0217181
throughput change = 0.139785
Class 0:
Packet latency average = 25.7661
	minimum = 7
	maximum = 63
Network latency average = 25.7661
	minimum = 7
	maximum = 63
Slowest packet = 4411
Flit latency average = 25.6149
	minimum = 7
	maximum = 63
Slowest flit = 4411
Fragmentation average = 0
	minimum = 0
	maximum = 0
Injected packet rate average = 0.0108125
	minimum = 0.005 (at node 7)
	maximum = 0.016 (at node 3)
Accepted packet rate average = 0.010875
	minimum = 0.005 (at node 13)
	maximum = 0.016 (at node 12)
Injected flit rate average = 0.0108125
	minimum = 0.005 (at node 7)
	maximum = 0.016 (at node 3)
Accepted flit rate average= 0.010875
	minimum = 0.005 (at node 13)
	maximum = 0.016 (at node 12)
Injected packet length average = 1
Accepted packet length average = 1
Total in-flight flits = 2 (2 measured)
latency change    = 0.00519746
throughput change = 0.0689655
Class 0:
Packet latency average = 24.9366
	minimum = 7
	maximum = 63
Network latency average = 24.9366
	minimum = 7
	maximum = 63
Slowest packet = 4411
Flit latency average = 24.8487
	minimum = 7
	maximum = 63
Slowest flit = 4411
Fragmentation average = 0
	minimum = 0
	maximum = 0
Injected packet rate average = 0.0113333
	minimum = 0.00533333 (at node 7)
	maximum = 0.018 (at node 15)
Accepted packet rate average = 0.0112917
	minimum = 0.00533333 (at node 13)
	maximum = 0.018 (at node 15)
Injected flit rate average = 0.0113333
	minimum = 0.00533333 (at node 7)
	maximum = 0.018 (at node 15)
Accepted flit rate average= 0.0112917
	minimum = 0.00533333 (at node 13)
	maximum = 0.018 (at node 15)
Injected packet length average = 1
Accepted packet length average = 1
Total in-flight flits = 4 (4 measured)
latency change    = 0.033265
throughput change = 0.0369004
Class 0:
Packet latency average = 25
	minimum = 7
	maximum = 63
Network latency average = 25
	minimum = 7
	maximum = 63
Slowest packet = 4411
Flit latency average = 24.9304
	minimum = 7
	maximum = 63
Slowest flit = 4411
Fragmentation average = 0
	minimum = 0
	maximum = 0
Injected packet rate average = 0.0107812
	minimum = 0.0055 (at node 7)
	maximum = 0.0145 (at node 10)
Accepted packet rate average = 0.0107812
	minimum = 0.0055 (at node 13)
	maximum = 0.0145 (at node 10)
Injected flit rate average = 0.0107812
	minimum = 0.0055 (at node 7)
	maximum = 0.0145 (at node 10)
Accepted flit rate average= 0.0107812
	minimum = 0.0055 (at node 13)
	maximum = 0.0145 (at node 10)
Injected packet length average = 1
Accepted packet length average = 1
Total in-flight flits = 3 (3 measured)
latency change    = 0.00253731
throughput change = 0.047343
Class 0:
Packet latency average = 25.4279
	minimum = 7
	maximum = 63
Network latency average = 25.4279
	minimum = 7
	maximum = 63
Slowest packet = 4411
Flit latency average = 25.3685
	minimum = 7
	maximum = 63
Slowest flit = 4411
Fragmentation average = 0
	minimum = 0
	maximum = 0
Injected packet rate average = 0.010625
	minimum = 0.006 (at node 5)
	maximum = 0.0144 (at node 15)
Accepted packet rate average = 0.01065
	minimum = 0.0056 (at node 5)
	maximum = 0.0144 (at node 15)
Injected flit rate average = 0.010625
	minimum = 0.006 (at node 5)
	maximum = 0.0144 (at node 15)
Accepted flit rate average= 0.01065
	minimum = 0.0056 (at node 5)
	maximum = 0.0144 (at node 15)
Injected packet length average = 1
Accepted packet length average = 1
Total in-flight flits = 2 (2 measured)
latency change    = 0.0168278
throughput change = 0.0123239
Draining all recorded packets ...
Draining remaining packets ...
Time taken is 4054 cycles
Class 0:
Packet latency average = 23.6118
	minimum = 7
	maximum = 65
Network latency average = 23.6118
	minimum = 7
	maximum = 65
Slowest packet = 4846
Flit latency average = 23.6118
	minimum = 7
	maximum = 65
Slowest flit = 4846
Fragmentation average = 0
	minimum = 0
	maximum = 0
Injected packet rate average = 0.011625
	minimum = 0.006 (at node 15)
	maximum = 0.02 (at node 8)
Accepted packet rate average = 0.010625
	minimum = 0.006 (at node 7)
	maximum = 0.018 (at node 2)
Injected flit rate average = 0.011625
	minimum = 0.006 (at node 15)
	maximum = 0.02 (at node 8)
Accepted flit rate average= 0.010625
	minimum = 0.006 (at node 7)
	maximum = 0.018 (at node 2)
Injected packet length average = 1
Accepted packet length average = 1
Total in-flight flits = 8 (0 measured)
latency change    = 1
throughput change = 1
Class 0:
Packet latency average = 24.9057
	minimum = 7
	maximum = 65
Network latency average = 24.9057
	minimum = 7
	maximum = 65
Slowest packet = 4846
Flit latency average = 24.9057
	minimum = 7
	maximum = 65
Slowest flit = 4846
Fragmentation average = 0
	minimum = 0
	maximum = 0
Injected packet rate average = 0.0101875
	minimum = 0.006 (at node 15)
	maximum = 0.016 (at node 10)
Accepted packet rate average = 0.0099375
	minimum = 0.006 (at node 3)
	maximum = 0.015 (at node 2)
Injected flit rate average = 0.0101875
	minimum = 0.006 (at node 15)
	maximum = 0.016 (at node 10)
Accepted flit rate average= 0.0099375
	minimum = 0.006 (at node 3)
	maximum = 0.015 (at node 2)
Injected packet length average = 1
Accepted packet length average = 1
Total in-flight flits = 4 (0 measured)
latency change    = 0.0519519
throughput change = 0.0691824
Class 0:
Packet latency average = 25.9778
	minimum = 7
	maximum = 63
Network latency average = 25.9778
	minimum = 7
	maximum = 63
Slowest packet = 4988
Flit latency average = 25.9778
	minimum = 7
	maximum = 63
Slowest flit = 4988
Fragmentation average = 0
	minimum = 0
	maximum = 0
Injected packet rate average = 0.010875
	minimum = 0.004 (at node 9)
	maximum = 0.02 (at node 12)
Accepted packet rate average = 0.01125
	minimum = 0.004 (at node 6)
	maximum = 0.022 (at node 3)
Injected flit rate average = 0.010875
	minimum = 0.004 (at node 9)
	maximum = 0.02 (at node 12)
Accepted flit rate average= 0.01125
	minimum = 0.004 (at node 6)
	maximum = 0.022 (at node 3)
Injected packet length average = 1
Accepted packet length average = 1
Total in-flight flits = 1 (0 measured)
latency change    = 0.0412706
throughput change = 0.116667
Warmed up ...Time used is 1500 cycles
Class 0:
Packet latency average = 21.3051
	minimum = 7
	maximum = 60
Network latency average = 21.3051
	minimum = 7
	maximum = 60
Slowest packet = 5088
Flit latency average = 21.7333
	minimum = 7
	maximum = 60
Slowest flit = 5088
Fragmentation average = 0
	minimum = 0
	maximum = 0
Injected packet rate average = 0.00775
	minimum = 0 (at node 7)
	maximum = 0.016 (at node 14)
Accepted packet rate average = 0.0075
	minimum = 0 (at node 13)
	maximum = 0.014 (at node 1)
Injected flit rate average = 0.00775
	minimum = 0 (at node 7)
	maximum = 0.016 (at node 14)
Accepted flit rate average= 0.0075
	minimum = 0 (at node 13)
	maximum = 0.014 (at node 1)
Injected packet length average = 1
Accepted packet length average = 1
Total in-flight flits = 3 (3 measured)
latency change    = 0.219323
throughput change = 0.5
Class 0:
Packet latency average = 25.8707
	minimum = 7
	maximum = 73
Network latency average = 25.8707
	minimum = 7
	maximum = 73
Slowest packet = 5120
Flit latency average = 26.0135
	minimum = 7
	maximum = 73
Slowest flit = 5120
Fragmentation average = 0
	minimum = 0
	maximum = 0
Injected packet rate average = 0.0095625
	minimum = 0.003 (at node 0)
	maximum = 0.016 (at node 9)
Accepted packet rate average = 0.00925
	minimum = 0.002 (at node 0)
	maximum = 0.016 (at node 6)
Injected flit rate average = 0.0095625
	minimum = 0.003 (at node 0)
	maximum = 0.016 (at node 9)
Accepted flit rate average= 0.00925
	minimum = 0.002 (at node 0)
	maximum = 0.016 (at node 6)
Injected packet length average = 1
Accepted packet length average = 1
Total in-flight flits = 6 (6 measured)
latency change    = 0.17648
throughput change = 0.189189
Class 0:
Packet latency average = 26.2887
	minimum = 7
	maximum = 73
Network latency average = 26.2887
	minimum = 7
	maximum = 73
Slowest packet = 5120
Flit latency average = 26.375
	minimum = 7
	maximum = 73
Slowest flit = 5120
Fragmentation average = 0
	minimum = 0
	maximum = 0
Injected packet rate average = 0.0100417
	minimum = 0.00333333 (at node 0)
	maximum = 0.014 (at node 9)
Accepted packet rate average = 0.01
	minimum = 0.00333333 (at node 0)
	maximum = 0.014 (at node 6)
Injected flit rate average = 0.0100417
	minimum = 0.00333333 (at node 0)
	maximum = 0.014 (at node 9)
Accepted flit rate average= 0.01
	minimum = 0.00333333 (at node 0)
	maximum = 0.014 (at node 6)
Injected packet length average = 1
Accepted packet length average = 1
Total in-flight flits = 2 (2 measured)
latency change    = 0.0158986
throughput change = 0.075
Class 0:
Packet latency average = 26.0794
	minimum = 7
	maximum = 73
Network latency average = 26.0794
	minimum = 7
	maximum = 73
Slowest packet = 5120
Flit latency average = 26.1456
	minimum = 7
	maximum = 73
Slowest flit = 5120
Fragmentation average = 0
	minimum = 0
	maximum = 0
Injected packet rate average = 0.0100625
	minimum = 0.003 (at node 0)
	maximum = 0.0125 (at node 9)
Accepted packet rate average = 0.009875
	minimum = 0.003 (at node 0)
	maximum = 0.0125 (at node 10)
Injected flit rate average = 0.0100625
	minimum = 0.003 (at node 0)
	maximum = 0.0125 (at node 9)
Accepted flit rate average= 0.009875
	minimum = 0.003 (at node 0)
	maximum = 0.0125 (at node 10)
Injected packet length average = 1
Accepted packet length average = 1
Total in-flight flits = 7 (7 measured)
latency change    = 0.00802695
throughput change = 0.0126582
Class 0:
Packet latency average = 25.8103
	minimum = 7
	maximum = 73
Network latency average = 25.8103
	minimum = 7
	maximum = 73
Slowest packet = 5120
Flit latency average = 25.8645
	minimum = 7
	maximum = 73
Slowest flit = 5120
Fragmentation average = 0
	minimum = 0
	maximum = 0
Injected packet rate average = 0.0098
	minimum = 0.0048 (at node 0)
	maximum = 0.0124 (at node 11)
Accepted packet rate average = 0.009775
	minimum = 0.0048 (at node 0)
	maximum = 0.0124 (at node 14)
Injected flit rate average = 0.0098
	minimum = 0.0048 (at node 0)
	maximum = 0.0124 (at node 11)
Accepted flit rate average= 0.009775
	minimum = 0.0048 (at node 0)
	maximum = 0.0124 (at node 14)
Injected packet length average = 1
Accepted packet length average = 1
Total in-flight flits = 2 (2 measured)
latency change    = 0.0104264
throughput change = 0.0102302
Class 0:
Packet latency average = 25.5766
	minimum = 7
	maximum = 73
Network latency average = 25.5766
	minimum = 7
	maximum = 73
Slowest packet = 5120
Flit latency average = 25.6221
	minimum = 7
	maximum = 73
Slowest flit = 5120
Fragmentation average = 0
	minimum = 0
	maximum = 0
Injected packet rate average = 0.009875
	minimum = 0.00533333 (at node 0)
	maximum = 0.014 (at node 11)
Accepted packet rate average = 0.0098125
	minimum = 0.00533333 (at node 0)
	maximum = 0.014 (at node 14)
Injected flit rate average = 0.009875
	minimum = 0.00533333 (at node 0)
	maximum = 0.014 (at node 11)
Accepted flit rate average= 0.0098125
	minimum = 0.00533333 (at node 0)
	maximum = 0.014 (at node 14)
Injected packet length average = 1
Accepted packet length average = 1
Total in-flight flits = 4 (4 measured)
latency change    = 0.00913572
throughput change = 0.00382166
Draining all recorded packets ...
Draining remaining packets ...
Time taken is 4565 cycles
Class 0:
Packet latency average = 24.9571
	minimum = 7
	maximum = 57
Network latency average = 24.9571
	minimum = 7
	maximum = 57
Slowest packet = 5543
Flit latency average = 24.9571
	minimum = 7
	maximum = 57
Slowest flit = 5543
Fragmentation average = 0
	minimum = 0
	maximum = 0
Injected packet rate average = 0.00925
	minimum = 0.004 (at node 3)
	maximum = 0.018 (at node 7)
Accepted packet rate average = 0.00875
	minimum = 0.004 (at node 1)
	maximum = 0.016 (at node 13)
Injected flit rate average = 0.00925
	minimum = 0.004 (at node 3)
	maximum = 0.018 (at node 7)
Accepted flit rate average= 0.00875
	minimum = 0.004 (at node 1)
	maximum = 0.016 (at node 13)
Injected packet length average = 1
Accepted packet length average = 1
Total in-flight flits = 4 (0 measured)
latency change    = 1
throughput change = 1
Class 0:
Packet latency average = 25.3224
	minimum = 7
	maximum = 72
Network latency average = 25.3224
	minimum = 7
	maximum = 72
Slowest packet = 5601
Flit latency average = 25.3224
	minimum = 7
	maximum = 72
Slowest flit = 5601
Fragmentation average = 0
	minimum = 0
	maximum = 0
Injected packet rate average = 0.009625
	minimum = 0.003 (at node 3)
	maximum = 0.019 (at node 7)
Accepted packet rate average = 0.0095
	minimum = 0.003 (at node 12)
	maximum = 0.018 (at node 13)
Injected flit rate average = 0.009625
	minimum = 0.003 (at node 3)
	maximum = 0.019 (at node 7)
Accepted flit rate average= 0.0095
	minimum = 0.003 (at node 12)
	maximum = 0.018 (at node 13)
Injected packet length average = 1
Accepted packet length average = 1
Total in-flight flits = 2 (0 measured)
latency change    = 0.014423
throughput change = 0.0789474
Class 0:
Packet latency average = 24.3243
	minimum = 7
	maximum = 58
Network latency average = 24.3243
	minimum = 7
	maximum = 58
Slowest packet = 5689
Flit latency average = 24.3243
	minimum = 7
	maximum = 58
Slowest flit = 5689
Fragmentation average = 0
	minimum = 0
	maximum = 0
Injected packet rate average = 0.00975
	minimum = 0.002 (at node 0)
	maximum = 0.016 (at node 1)
Accepted packet rate average = 0.00925
	minimum = 0.002 (at node 0)
	maximum = 0.016 (at node 4)
Injected flit rate average = 0.00975
	minimum = 0.002 (at node 0)
	maximum = 0.016 (at node 1)
Accepted flit rate average= 0.00925
	minimum = 0.002 (at node 0)
	maximum = 0.016 (at node 4)
Injected packet length average = 1
Accepted packet length average = 1
Total in-flight flits = 6 (0 measured)
latency change    = 0.0410307
throughput change = 0.027027
Warmed up ...Time used is 1500 cycles
Class 0:
Packet latency average = 25.6338
	minimum = 7
	maximum = 59
Network latency average = 25.6338
	minimum = 7
	maximum = 59
Slowest packet = 5773
Flit latency average = 27.1039
	minimum = 7
	maximum = 59
Slowest flit = 5773
Fragmentation average = 0
	minimum = 0
	maximum = 0
Injected packet rate average = 0.009125
	minimum = 0.004 (at node 15)
	maximum = 0.012 (at node 2)
Accepted packet rate average = 0.009625
	minimum = 0.004 (at node 15)
	maximum = 0.014 (at node 3)
Injected flit rate average = 0.009125
	minimum = 0.004 (at node 15)
	maximum = 0.012 (at node 2)
Accepted flit rate average= 0.009625
	minimum = 0.004 (at node 15)
	maximum = 0.014 (at node 3)
Injected packet length average = 1
Accepted packet length average = 1
Total in-flight flits = 2 (2 measured)
latency change    = 0.0510841
throughput change = 0.038961
Class 0:
Packet latency average = 24.7122
	minimum = 7
	maximum = 59
Network latency average = 24.7122
	minimum = 7
	maximum = 59
Slowest packet = 5773
Flit latency average = 25.531
	minimum = 7
	maximum = 59
Slowest flit = 5773
Fragmentation average = 0
	minimum = 0
	maximum = 0
Injected packet rate average = 0.0090625
	minimum = 0.005 (at node 6)
	maximum = 0.012 (at node 4)
Accepted packet rate average = 0.0090625
	minimum = 0.005 (at node 6)
	maximum = 0.012 (at node 1)
Injected flit rate average = 0.0090625
	minimum = 0.005 (at node 6)
	maximum = 0.012 (at node 4)
Accepted flit rate average= 0.0090625
	minimum = 0.005 (at node 6)
	maximum = 0.012 (at node 1)
Injected packet length average = 1
Accepted packet length average = 1
Total in-flight flits = 6 (6 measured)
latency change    = 0.0372922
throughput change = 0.062069
Class 0:
Packet latency average = 24.2748
	minimum = 7
	maximum = 59
Network latency average = 24.2748
	minimum = 7
	maximum = 59
Slowest packet = 5773
Flit latency average = 24.807
	minimum = 7
	maximum = 59
Slowest flit = 5773
Fragmentation average = 0
	minimum = 0
	maximum = 0
Injected packet rate average = 0.00941667
	minimum = 0.00533333 (at node 6)
	maximum = 0.014 (at node 4)
Accepted packet rate average = 0.0095
	minimum = 0.006 (at node 9)
	maximum = 0.014 (at node 1)
Injected flit rate average = 0.00941667
	minimum = 0.00533333 (at node 6)
	maximum = 0.014 (at node 4)
Accepted flit rate average= 0.0095
	minimum = 0.006 (at node 9)
	maximum = 0.014 (at node 1)
Injected packet length average = 1
Accepted packet length average = 1
Total in-flight flits = 4 (4 measured)
latency change    = 0.018021
throughput change = 0.0460526
Class 0:
Packet latency average = 24.4452
	minimum = 7
	maximum = 59
Network latency average = 24.4452
	minimum = 7
	maximum = 59
Slowest packet = 5773
Flit latency average = 24.8371
	minimum = 7
	maximum = 59
Slowest flit = 5773
Fragmentation average = 0
	minimum = 0
	maximum = 0
Injected packet rate average = 0.0095625
	minimum = 0.0055 (at node 6)
	maximum = 0.0135 (at node 4)
Accepted packet rate average = 0.00959375
	minimum = 0.0055 (at node 9)
	maximum = 0.0135 (at node 13)
Injected flit rate average = 0.0095625
	minimum = 0.0055 (at node 6)
	maximum = 0.0135 (at node 4)
Accepted flit rate average= 0.00959375
	minimum = 0.0055 (at node 9)
	maximum = 0.0135 (at node 13)
Injected packet length average = 1
Accepted packet length average = 1
Total in-flight flits = 5 (5 measured)
latency change    = 0.00697102
throughput change = 0.00977199
Class 0:
Packet latency average = 24.2971
	minimum = 7
	maximum = 65
Network latency average = 24.2971
	minimum = 7
	maximum = 65
Slowest packet = 6084
Flit latency average = 24.6136
	minimum = 7
	maximum = 65
Slowest flit = 6084
Fragmentation average = 0
	minimum = 0
	maximum = 0
Injected packet rate average = 0.0095
	minimum = 0.0064 (at node 6)
	maximum = 0.0132 (at node 7)
Accepted packet rate average = 0.009575
	minimum = 0.0068 (at node 9)
	maximum = 0.0132 (at node 13)
Injected flit rate average = 0.0095
	minimum = 0.0064 (at node 6)
	maximum = 0.0132 (at node 7)
Accepted flit rate average= 0.009575
	minimum = 0.0068 (at node 9)
	maximum = 0.0132 (at node 13)
Injected packet length average = 1
Accepted packet length average = 1
Total in-flight flits = 3 (3 measured)
latency change    = 0.0060954
throughput change = 0.00195822
Draining all recorded packets ...
Draining remaining packets ...
Time taken is 4018 cycles
Class 0:
Packet latency average = 24.7353
	minimum = 7
	maximum = 57
Network latency average = 24.7353
	minimum = 7
	maximum = 57
Slowest packet = 6139
Flit latency average = 24.7353
	minimum = 7
	maximum = 57
Slowest flit = 6139
Fragmentation average = 0
	minimum = 0
	maximum = 0
Injected packet rate average = 0.008625
	minimum = 0.004 (at node 7)
	maximum = 0.016 (at node 3)
Accepted packet rate average = 0.0085
	minimum = 0.004 (at node 3)
	maximum = 0.014 (at node 9)
Injected flit rate average = 0.008625
	minimum = 0.004 (at node 7)
	maximum = 0.016 (at node 3)
Accepted flit rate average= 0.0085
	minimum = 0.004 (at node 3)
	maximum = 0.014 (at node 9)
Injected packet length average = 1
Accepted packet length average = 1
Total in-flight flits = 1 (0 measured)
latency change    = 1
throughput change = 1
Class 0:
Packet latency average = 25.5224
	minimum = 7
	maximum = 58
Network latency average = 25.5224
	minimum = 7
	maximum = 58
Slowest packet = 6225
Flit latency average = 25.5224
	minimum = 7
	maximum = 58
Slowest flit = 6225
Fragmentation average = 0
	minimum = 0
	maximum = 0
Injected packet rate average = 0.008625
	minimum = 0.004 (at node 15)
	maximum = 0.013 (at node 0)
Accepted packet rate average = 0.008375
	minimum = 0.004 (at node 15)
	maximum = 0.013 (at node 0)
Injected flit rate average = 0.008625
	minimum = 0.004 (at node 15)
	maximum = 0.013 (at node 0)
Accepted flit rate average= 0.008375
	minimum = 0.004 (at node 15)
	maximum = 0.013 (at node 0)
Injected packet length average = 1
Accepted packet length average = 1
Total in-flight flits = 4 (0 measured)
latency change    = 0.0308394
throughput change = 0.0149254
Class 0:
Packet latency average = 26.0682
	minimum = 7
	maximum = 93
Network latency average = 26.0682
	minimum = 7
	maximum = 93
Slowest packet = 6271
Flit latency average = 26.0682
	minimum = 7
	maximum = 93
Slowest flit = 6271
Fragmentation average = 0
	minimum = 0
	maximum = 0
Injected packet rate average = 0.01175
	minimum = 0.006 (at node 3)
	maximum = 0.02 (at node 0)
Accepted packet rate average = 0.011
	minimum = 0.004 (at node 1)
	maximum = 0.02 (at node 0)
Injected flit rate average = 0.01175
	minimum = 0.006 (at node 3)
	maximum = 0.02 (at node 0)
Accepted flit rate average= 0.011
	minimum = 0.004 (at node 1)
	maximum = 0.02 (at node 0)
Injected packet length average = 1
Accepted packet length average = 1
Total in-flight flits = 10 (0 measured)
latency change    = 0.0209372
throughput change = 0.238636
Warmed up ...Time used is 1500 cycles
Class 0:
Packet latency average = 24.9559
	minimum = 7
	maximum = 66
Network latency average = 24.9559
	minimum = 7
	maximum = 66
Slowest packet = 6380
Flit latency average = 25.4103
	minimum = 7
	maximum = 66
Slowest flit = 6351
Fragmentation average = 0
	minimum = 0
	maximum = 0
Injected packet rate average = 0.009125
	minimum = 0 (at node 13)
	maximum = 0.018 (at node 10)
Accepted packet rate average = 0.00975
	minimum = 0 (at node 7)
	maximum = 0.02 (at node 10)
Injected flit rate average = 0.009125
	minimum = 0 (at node 13)
	maximum = 0.018 (at node 10)
Accepted flit rate average= 0.00975
	minimum = 0 (at node 7)
	maximum = 0.02 (at node 10)
Injected packet length average = 1
Accepted packet length average = 1
Total in-flight flits = 5 (5 measured)
latency change    = 0.0445706
throughput change = 0.128205
Class 0:
Packet latency average = 25.6835
	minimum = 7
	maximum = 66
Network latency average = 25.6835
	minimum = 7
	maximum = 66
Slowest packet = 6380
Flit latency average = 25.8725
	minimum = 7
	maximum = 66
Slowest flit = 6351
Fragmentation average = 0
	minimum = 0
	maximum = 0
Injected packet rate average = 0.0090625
	minimum = 0.006 (at node 2)
	maximum = 0.012 (at node 3)
Accepted packet rate average = 0.0093125
	minimum = 0.007 (at node 5)
	maximum = 0.013 (at node 3)
Injected flit rate average = 0.0090625
	minimum = 0.006 (at node 2)
	maximum = 0.012 (at node 3)
Accepted flit rate average= 0.0093125
	minimum = 0.007 (at node 5)
	maximum = 0.013 (at node 3)
Injected packet length average = 1
Accepted packet length average = 1
Total in-flight flits = 6 (6 measured)
latency change    = 0.0283284
throughput change = 0.0469799
Class 0:
Packet latency average = 25.638
	minimum = 7
	maximum = 66
Network latency average = 25.638
	minimum = 7
	maximum = 66
Slowest packet = 6380
Flit latency average = 25.7619
	minimum = 7
	maximum = 66
Slowest flit = 6351
Fragmentation average = 0
	minimum = 0
	maximum = 0
Injected packet rate average = 0.00925
	minimum = 0.00733333 (at node 5)
	maximum = 0.0133333 (at node 10)
Accepted packet rate average = 0.009625
	minimum = 0.00733333 (at node 5)
	maximum = 0.014 (at node 10)
Injected flit rate average = 0.00925
	minimum = 0.00733333 (at node 5)
	maximum = 0.0133333 (at node 10)
Accepted flit rate average= 0.009625
	minimum = 0.00733333 (at node 5)
	maximum = 0.014 (at node 10)
Injected packet length average = 1
Accepted packet length average = 1
Total in-flight flits = 1 (1 measured)
latency change    = 0.00177253
throughput change = 0.0324675
Class 0:
Packet latency average = 25.09
	minimum = 7
	maximum = 66
Network latency average = 25.09
	minimum = 7
	maximum = 66
Slowest packet = 6380
Flit latency average = 25.204
	minimum = 7
	maximum = 66
Slowest flit = 6351
Fragmentation average = 0
	minimum = 0
	maximum = 0
Injected packet rate average = 0.00909375
	minimum = 0.007 (at node 5)
	maximum = 0.011 (at node 8)
Accepted packet rate average = 0.00934375
	minimum = 0.0065 (at node 7)
	maximum = 0.0115 (at node 2)
Injected flit rate average = 0.00909375
	minimum = 0.007 (at node 5)
	maximum = 0.011 (at node 8)
Accepted flit rate average= 0.00934375
	minimum = 0.0065 (at node 7)
	maximum = 0.0115 (at node 2)
Injected packet length average = 1
Accepted packet length average = 1
Total in-flight flits = 2 (2 measured)
latency change    = 0.0218431
throughput change = 0.0301003
Draining all recorded packets ...
Draining remaining packets ...
Time taken is 3584 cycles
Class 0:
Packet latency average = 25.3704
	minimum = 7
	maximum = 59
Network latency average = 25.3704
	minimum = 7
	maximum = 59
Slowest packet = 6715
Flit latency average = 25.3704
	minimum = 7
	maximum = 59
Slowest flit = 6715
Fragmentation average = 0
	minimum = 0
	maximum = 0
Injected packet rate average = 0.010875
	minimum = 0.006 (at node 0)
	maximum = 0.02 (at node 10)
Accepted packet rate average = 0.010125
	minimum = 0.006 (at node 0)
	maximum = 0.018 (at node 10)
Injected flit rate average = 0.010875
	minimum = 0.006 (at node 0)
	maximum = 0.02 (at node 10)
Accepted flit rate average= 0.010125
	minimum = 0.006 (at node 0)
	maximum = 0.018 (at node 10)
Injected packet length average = 1
Accepted packet length average = 1
Total in-flight flits = 6 (0 measured)
latency change    = 1
throughput change = 1
Class 0:
Packet latency average = 24.5064
	minimum = 7
	maximum = 62
Network latency average = 24.5064
	minimum = 7
	maximum = 62
Slowest packet = 6762
Flit latency average = 24.5064
	minimum = 7
	maximum = 62
Slowest flit = 6762
Fragmentation average = 0
	minimum = 0
	maximum = 0
Injected packet rate average = 0.01
	minimum = 0.007 (at node 1)
	maximum = 0.014 (at node 10)
Accepted packet rate average = 0.00975
	minimum = 0.007 (at node 3)
	maximum = 0.014 (at node 10)
Injected flit rate average = 0.01
	minimum = 0.007 (at node 1)
	maximum = 0.014 (at node 10)
Accepted flit rate average= 0.00975
	minimum = 0.007 (at node 3)
	maximum = 0.014 (at node 10)
Injected packet length average = 1
Accepted packet length average = 1
Total in-flight flits = 4 (0 measured)
latency change    = 0.0352545
throughput change = 0.0384615
Class 0:
Packet latency average = 22.8696
	minimum = 7
	maximum = 57
Network latency average = 22.8696
	minimum = 7
	maximum = 57
Slowest packet = 6817
Flit latency average = 22.8696
	minimum = 7
	maximum = 57
Slowest flit = 6817
Fragmentation average = 0
	minimum = 0
	maximum = 0
Injected packet rate average = 0.009
	minimum = 0.002 (at node 7)
	maximum = 0.02 (at node 5)
Accepted packet rate average = 0.008625
	minimum = 0.002 (at node 13)
	maximum = 0.018 (at node 5)
Injected flit rate average = 0.009
	minimum = 0.002 (at node 7)
	maximum = 0.02 (at node 5)
Accepted flit rate average= 0.008625
	minimum = 0.002 (at node 13)
	maximum = 0.018 (at node 5)
Injected packet length average = 1
Accepted packet length average = 1
Total in-flight flits = 7 (0 measured)
latency change    = 0.0715731
throughput change = 0.130435
Warmed up ...Time used is 1500 cycles
Class 0:
Packet latency average = 26.0698
	minimum = 7
	maximum = 65
Network latency average = 26.0698
	minimum = 7
	maximum = 65
Slowest packet = 6916
Flit latency average = 26.7849
	minimum = 7
	maximum = 65
Slowest flit = 6916
Fragmentation average = 0
	minimum = 0
	maximum = 0
Injected packet rate average = 0.011125
	minimum = 0.004 (at node 1)
	maximum = 0.024 (at node 4)
Accepted packet rate average = 0.011625
	minimum = 0.004 (at node 4)
	maximum = 0.026 (at node 1)
Injected flit rate average = 0.011125
	minimum = 0.004 (at node 1)
	maximum = 0.024 (at node 4)
Accepted flit rate average= 0.011625
	minimum = 0.004 (at node 4)
	maximum = 0.026 (at node 1)
Injected packet length average = 1
Accepted packet length average = 1
Total in-flight flits = 3 (3 measured)
latency change    = 0.122755
throughput change = 0.258065
Class 0:
Packet latency average = 26.9085
	minimum = 7
	maximum = 65
Network latency average = 26.9085
	minimum = 7
	maximum = 65
Slowest packet = 6916
Flit latency average = 27.2632
	minimum = 7
	maximum = 65
Slowest flit = 6916
Fragmentation average = 0
	minimum = 0
	maximum = 0
Injected packet rate average = 0.0104375
	minimum = 0.005 (at node 9)
	maximum = 0.019 (at node 4)
Accepted packet rate average = 0.0106875
	minimum = 0.005 (at node 6)
	maximum = 0.02 (at node 1)
Injected flit rate average = 0.0104375
	minimum = 0.005 (at node 9)
	maximum = 0.019 (at node 4)
Accepted flit rate average= 0.0106875
	minimum = 0.005 (at node 6)
	maximum = 0.02 (at node 1)
Injected packet length average = 1
Accepted packet length average = 1
Total in-flight flits = 3 (3 measured)
latency change    = 0.0311711
throughput change = 0.0877193
Class 0:
Packet latency average = 26.2417
	minimum = 7
	maximum = 65
Network latency average = 26.2417
	minimum = 7
	maximum = 65
Slowest packet = 6916
Flit latency average = 26.5061
	minimum = 7
	maximum = 65
Slowest flit = 6916
Fragmentation average = 0
	minimum = 0
	maximum = 0
Injected packet rate average = 0.0100833
	minimum = 0.00666667 (at node 9)
	maximum = 0.0146667 (at node 4)
Accepted packet rate average = 0.0102917
	minimum = 0.00666667 (at node 6)
	maximum = 0.0153333 (at node 1)
Injected flit rate average = 0.0100833
	minimum = 0.00666667 (at node 9)
	maximum = 0.0146667 (at node 4)
Accepted flit rate average= 0.0102917
	minimum = 0.00666667 (at node 6)
	maximum = 0.0153333 (at node 1)
Injected packet length average = 1
Accepted packet length average = 1
Total in-flight flits = 2 (2 measured)
latency change    = 0.0254126
throughput change = 0.0384615
Class 0:
Packet latency average = 25.7883
	minimum = 7
	maximum = 65
Network latency average = 25.7883
	minimum = 7
	maximum = 65
Slowest packet = 6916
Flit latency average = 25.994
	minimum = 7
	maximum = 65
Slowest flit = 6916
Fragmentation average = 0
	minimum = 0
	maximum = 0
Injected packet rate average = 0.0102813
	minimum = 0.0065 (at node 9)
	maximum = 0.013 (at node 4)
Accepted packet rate average = 0.0104063
	minimum = 0.0065 (at node 6)
	maximum = 0.0135 (at node 1)
Injected flit rate average = 0.0102813
	minimum = 0.0065 (at node 9)
	maximum = 0.013 (at node 4)
Accepted flit rate average= 0.0104063
	minimum = 0.0065 (at node 6)
	maximum = 0.0135 (at node 1)
Injected packet length average = 1
Accepted packet length average = 1
Total in-flight flits = 3 (3 measured)
latency change    = 0.0175786
throughput change = 0.011011
Class 0:
Packet latency average = 25.8189
	minimum = 7
	maximum = 65
Network latency average = 25.8189
	minimum = 7
	maximum = 65
Slowest packet = 6916
Flit latency average = 25.9854
	minimum = 7
	maximum = 65
Slowest flit = 6916
Fragmentation average = 0
	minimum = 0
	maximum = 0
Injected packet rate average = 0.010175
	minimum = 0.0076 (at node 6)
	maximum = 0.0136 (at node 4)
Accepted packet rate average = 0.01025
	minimum = 0.0072 (at node 6)
	maximum = 0.0136 (at node 1)
Injected flit rate average = 0.010175
	minimum = 0.0076 (at node 6)
	maximum = 0.0136 (at node 4)
Accepted flit rate average= 0.01025
	minimum = 0.0072 (at node 6)
	maximum = 0.0136 (at node 1)
Injected packet length average = 1
Accepted packet length average = 1
Total in-flight flits = 4 (4 measured)
latency change    = 0.00118189
throughput change = 0.0152439
Draining all recorded packets ...
Draining remaining packets ...
Time taken is 4079 cycles
Class 0:
Packet latency average = 25.6351
	minimum = 7
	maximum = 58
Network latency average = 25.6351
	minimum = 7
	maximum = 58
Slowest packet = 7360
Flit latency average = 25.6351
	minimum = 7
	maximum = 58
Slowest flit = 7360
Fragmentation average = 0
	minimum = 0
	maximum = 0
Injected packet rate average = 0.00925
	minimum = 0.002 (at node 13)
	maximum = 0.016 (at node 15)
Accepted packet rate average = 0.00925
	minimum = 0.002 (at node 7)
	maximum = 0.016 (at node 15)
Injected flit rate average = 0.00925
	minimum = 0.002 (at node 13)
	maximum = 0.016 (at node 15)
Accepted flit rate average= 0.00925
	minimum = 0.002 (at node 7)
	maximum = 0.016 (at node 15)
Injected packet length average = 1
Accepted packet length average = 1
Total in-flight flits = 0 (0 measured)
latency change    = 1
throughput change = 1
Class 0:
Packet latency average = 25.5697
	minimum = 7
	maximum = 67
Network latency average = 25.5697
	minimum = 7
	maximum = 67
Slowest packet = 7408
Flit latency average = 25.5697
	minimum = 7
	maximum = 67
Slowest flit = 7408
Fragmentation average = 0
	minimum = 0
	maximum = 0
Injected packet rate average = 0.0103125
	minimum = 0.006 (at node 11)
	maximum = 0.015 (at node 4)
Accepted packet rate average = 0.0103125
[...]
Flit latency average = 26.5684
	minimum = 7
	maximum = 67
Slowest flit = 32495
Fragmentation average = 0
	minimum = 0
	maximum = 0
Injected packet rate average = 0.00975
	minimum = 0.004 (at node 15)
	maximum = 0.014 (at node 13)
Accepted packet rate average = 0.00975
	minimum = 0.00466667 (at node 15)
	maximum = 0.014 (at node 7)
Injected flit rate average = 0.00975
	minimum = 0.004 (at node 15)
	maximum = 0.014 (at node 13)
Accepted flit rate average= 0.00975
	minimum = 0.00466667 (at node 15)
	maximum = 0.014 (at node 7)
Injected packet length average = 1
Accepted packet length average = 1
Total in-flight flits = 4 (4 measured)
latency change    = 0.0334692
throughput change = 0.0705128
Class 0:
Packet latency average = 26.224
	minimum = 7
	maximum = 67
Network latency average = 26.224
	minimum = 7
	maximum = 67
Slowest packet = 32495
Flit latency average = 26.2648
	minimum = 7
	maximum = 67
Slowest flit = 32495
Fragmentation average = 0
	minimum = 0
	maximum = 0
Injected packet rate average = 0.00996875
	minimum = 0.0055 (at node 15)
	maximum = 0.0135 (at node 13)
Accepted packet rate average = 0.0100313
	minimum = 0.006 (at node 15)
	maximum = 0.014 (at node 7)
Injected flit rate average = 0.00996875
	minimum = 0.0055 (at node 15)
	maximum = 0.0135 (at node 13)
Accepted flit rate average= 0.0100313
	minimum = 0.006 (at node 15)
	maximum = 0.014 (at node 7)
Injected packet length average = 1
Accepted packet length average = 1
Total in-flight flits = 2 (2 measured)
latency change    = 0.0111889
throughput change = 0.0280374
Class 0:
Packet latency average = 26.0793
	minimum = 7
	maximum = 67
Network latency average = 26.0793
	minimum = 7
	maximum = 67
Slowest packet = 32495
Flit latency average = 26.1139
	minimum = 7
	maximum = 67
Slowest flit = 32495
Fragmentation average = 0
	minimum = 0
	maximum = 0
Injected packet rate average = 0.009875
	minimum = 0.0076 (at node 10)
	maximum = 0.0148 (at node 13)
Accepted packet rate average = 0.009875
	minimum = 0.0076 (at node 3)
	maximum = 0.0152 (at node 7)
Injected flit rate average = 0.009875
	minimum = 0.0076 (at node 10)
	maximum = 0.0148 (at node 13)
Accepted flit rate average= 0.009875
	minimum = 0.0076 (at node 3)
	maximum = 0.0152 (at node 7)
Injected packet length average = 1
Accepted packet length average = 1
Total in-flight flits = 4 (4 measured)
latency change    = 0.00554812
throughput change = 0.0158228
Class 0:
Packet latency average = 25.7684
	minimum = 7
	maximum = 67
Network latency average = 25.7684
	minimum = 7
	maximum = 67
Slowest packet = 32495
Flit latency average = 25.7988
	minimum = 7
	maximum = 67
Slowest flit = 32495
Fragmentation average = 0
	minimum = 0
	maximum = 0
Injected packet rate average = 0.0102917
	minimum = 0.008 (at node 2)
	maximum = 0.014 (at node 13)
Accepted packet rate average = 0.01025
	minimum = 0.00766667 (at node 8)
	maximum = 0.014 (at node 7)
Injected flit rate average = 0.0102917
	minimum = 0.008 (at node 2)
	maximum = 0.014 (at node 13)
Accepted flit rate average= 0.01025
	minimum = 0.00766667 (at node 8)
	maximum = 0.014 (at node 7)
Injected packet length average = 1
Accepted packet length average = 1
Total in-flight flits = 6 (6 measured)
latency change    = 0.0120629
throughput change = 0.0365854
Draining all recorded packets ...
Draining remaining packets ...
Time taken is 4551 cycles
Class 0:
Packet latency average = 24.7595
	minimum = 7
	maximum = 65
Network latency average = 24.7595
	minimum = 7
	maximum = 65
Slowest packet = 32945
Flit latency average = 24.7595
	minimum = 7
	maximum = 65
Slowest flit = 32945
Fragmentation average = 0
	minimum = 0
	maximum = 0
Injected packet rate average = 0.010125
	minimum = 0.002 (at node 12)
	maximum = 0.02 (at node 3)
Accepted packet rate average = 0.009875
	minimum = 0.002 (at node 3)
	maximum = 0.018 (at node 11)
Injected flit rate average = 0.010125
	minimum = 0.002 (at node 12)
	maximum = 0.02 (at node 3)
Accepted flit rate average= 0.009875
	minimum = 0.002 (at node 3)
	maximum = 0.018 (at node 11)
Injected packet length average = 1
Accepted packet length average = 1
Total in-flight flits = 2 (0 measured)
latency change    = 1
throughput change = 1
Class 0:
Packet latency average = 24.7329
	minimum = 7
	maximum = 65
Network latency average = 24.7329
	minimum = 7
	maximum = 65
Slowest packet = 32945
Flit latency average = 24.7329
	minimum = 7
	maximum = 65
Slowest flit = 32945
Fragmentation average = 0
	minimum = 0
	maximum = 0
Injected packet rate average = 0.01025
	minimum = 0.004 (at node 8)
	maximum = 0.015 (at node 6)
Accepted packet rate average = 0.0100625
	minimum = 0.004 (at node 2)
	maximum = 0.015 (at node 9)
Injected flit rate average = 0.01025
	minimum = 0.004 (at node 8)
	maximum = 0.015 (at node 6)
Accepted flit rate average= 0.0100625
	minimum = 0.004 (at node 2)
	maximum = 0.015 (at node 9)
Injected packet length average = 1
Accepted packet length average = 1
Total in-flight flits = 3 (0 measured)
latency change    = 0.00107446
throughput change = 0.0186335
Class 0:
Packet latency average = 27.2338
	minimum = 7
	maximum = 68
Network latency average = 27.2338
	minimum = 7
	maximum = 68
Slowest packet = 33140
Flit latency average = 27.2338
	minimum = 7
	maximum = 68
Slowest flit = 33140
Fragmentation average = 0
	minimum = 0
	maximum = 0
Injected packet rate average = 0.00975
	minimum = 0.002 (at node 8)
	maximum = 0.018 (at node 10)
Accepted packet rate average = 0.009625
	minimum = 0.002 (at node 2)
	maximum = 0.018 (at node 3)
Injected flit rate average = 0.00975
	minimum = 0.002 (at node 8)
	maximum = 0.018 (at node 10)
Accepted flit rate average= 0.009625
	minimum = 0.002 (at node 2)
	maximum = 0.018 (at node 3)
Injected packet length average = 1
Accepted packet length average = 1
Total in-flight flits = 4 (0 measured)
latency change    = 0.0918289
throughput change = 0.0454545
Warmed up ...Time used is 1500 cycles
Class 0:
Packet latency average = 22.9024
	minimum = 7
	maximum = 65
Network latency average = 22.9024
	minimum = 7
	maximum = 65
Slowest packet = 33184
Flit latency average = 23.2907
	minimum = 7
	maximum = 65
Slowest flit = 33184
Fragmentation average = 0
	minimum = 0
	maximum = 0
Injected packet rate average = 0.01075
	minimum = 0.002 (at node 7)
	maximum = 0.02 (at node 10)
Accepted packet rate average = 0.01075
	minimum = 0.004 (at node 7)
	maximum = 0.02 (at node 10)
Injected flit rate average = 0.01075
	minimum = 0.002 (at node 7)
	maximum = 0.02 (at node 10)
Accepted flit rate average= 0.01075
	minimum = 0.004 (at node 7)
	maximum = 0.02 (at node 10)
Injected packet length average = 1
Accepted packet length average = 1
Total in-flight flits = 4 (4 measured)
latency change    = 0.189121
throughput change = 0.104651
Class 0:
Packet latency average = 24.2065
	minimum = 7
	maximum = 65
Network latency average = 24.2065
	minimum = 7
	maximum = 65
Slowest packet = 33184
Flit latency average = 24.3836
	minimum = 7
	maximum = 65
Slowest flit = 33184
Fragmentation average = 0
	minimum = 0
	maximum = 0
Injected packet rate average = 0.0099375
	minimum = 0.005 (at node 7)
	maximum = 0.018 (at node 6)
Accepted packet rate average = 0.0099375
	minimum = 0.005 (at node 12)
	maximum = 0.018 (at node 10)
Injected flit rate average = 0.0099375
	minimum = 0.005 (at node 7)
	maximum = 0.018 (at node 6)
Accepted flit rate average= 0.0099375
	minimum = 0.005 (at node 12)
	maximum = 0.018 (at node 10)
Injected packet length average = 1
Accepted packet length average = 1
Total in-flight flits = 4 (4 measured)
latency change    = 0.0538705
throughput change = 0.081761
Class 0:
Packet latency average = 25.5605
	minimum = 7
	maximum = 72
Network latency average = 25.5605
	minimum = 7
	maximum = 72
Slowest packet = 33403
Flit latency average = 25.6508
	minimum = 7
	maximum = 72
Slowest flit = 33403
Fragmentation average = 0
	minimum = 0
	maximum = 0
Injected packet rate average = 0.0104167
	minimum = 0.00666667 (at node 15)
	maximum = 0.0146667 (at node 10)
Accepted packet rate average = 0.0105
	minimum = 0.00666667 (at node 15)
	maximum = 0.0146667 (at node 10)
Injected flit rate average = 0.0104167
	minimum = 0.00666667 (at node 15)
	maximum = 0.0146667 (at node 10)
Accepted flit rate average= 0.0105
	minimum = 0.00666667 (at node 15)
	maximum = 0.0146667 (at node 10)
Injected packet length average = 1
Accepted packet length average = 1
Total in-flight flits = 2 (2 measured)
latency change    = 0.0529737
throughput change = 0.0535714
Class 0:
Packet latency average = 26.2727
	minimum = 7
	maximum = 77
Network latency average = 26.2727
	minimum = 7
	maximum = 77
Slowest packet = 33470
Flit latency average = 26.3304
	minimum = 7
	maximum = 77
Slowest flit = 33470
Fragmentation average = 0
	minimum = 0
	maximum = 0
Injected packet rate average = 0.0107188
	minimum = 0.0065 (at node 15)
	maximum = 0.0155 (at node 14)
Accepted packet rate average = 0.0107812
	minimum = 0.0065 (at node 15)
	maximum = 0.015 (at node 11)
Injected flit rate average = 0.0107188
	minimum = 0.0065 (at node 15)
	maximum = 0.0155 (at node 14)
Accepted flit rate average= 0.0107812
	minimum = 0.0065 (at node 15)
	maximum = 0.015 (at node 11)
Injected packet length average = 1
Accepted packet length average = 1
Total in-flight flits = 2 (2 measured)
latency change    = 0.0271096
throughput change = 0.026087
Class 0:
Packet latency average = 26.1548
	minimum = 7
	maximum = 77
Network latency average = 26.1548
	minimum = 7
	maximum = 77
Slowest packet = 33470
Flit latency average = 26.2028
	minimum = 7
	maximum = 77
Slowest flit = 33470
Fragmentation average = 0
	minimum = 0
	maximum = 0
Injected packet rate average = 0.01055
	minimum = 0.008 (at node 5)
	maximum = 0.0152 (at node 14)
Accepted packet rate average = 0.0106
	minimum = 0.008 (at node 5)
	maximum = 0.0152 (at node 11)
Injected flit rate average = 0.01055
	minimum = 0.008 (at node 5)
	maximum = 0.0152 (at node 14)
Accepted flit rate average= 0.0106
	minimum = 0.008 (at node 5)
	maximum = 0.0152 (at node 11)
Injected packet length average = 1
Accepted packet length average = 1
Total in-flight flits = 2 (2 measured)
latency change    = 0.00451028
throughput change = 0.0170991
Class 0:
Packet latency average = 26.2366
	minimum = 7
	maximum = 77
Network latency average = 26.2366
	minimum = 7
	maximum = 77
Slowest packet = 33470
Flit latency average = 26.2776
	minimum = 7
	maximum = 77
Slowest flit = 33470
Fragmentation average = 0
	minimum = 0
	maximum = 0
Injected packet rate average = 0.0102292
	minimum = 0.00833333 (at node 2)
	maximum = 0.014 (at node 14)
Accepted packet rate average = 0.0102083
	minimum = 0.00866667 (at node 8)
	maximum = 0.0136667 (at node 11)
Injected flit rate average = 0.0102292
	minimum = 0.00833333 (at node 2)
	maximum = 0.014 (at node 14)
Accepted flit rate average= 0.0102083
	minimum = 0.00866667 (at node 8)
	maximum = 0.0136667 (at node 11)
Injected packet length average = 1
Accepted packet length average = 1
Total in-flight flits = 5 (5 measured)
latency change    = 0.0031202
throughput change = 0.0383673
Draining all recorded packets ...
Draining remaining packets ...
Time taken is 4584 cycles
Class 0:
Packet latency average = 23.775
	minimum = 7
	maximum = 64
Network latency average = 23.775
	minimum = 7
	maximum = 64
Slowest packet = 33714
Flit latency average = 23.775
	minimum = 7
	maximum = 64
Slowest flit = 33714
Fragmentation average = 0
	minimum = 0
	maximum = 0
Injected packet rate average = 0.01025
	minimum = 0.002 (at node 8)
	maximum = 0.02 (at node 5)
Accepted packet rate average = 0.01
	minimum = 0.002 (at node 2)
	maximum = 0.02 (at node 5)
Injected flit rate average = 0.01025
	minimum = 0.002 (at node 8)
	maximum = 0.02 (at node 5)
Accepted flit rate average= 0.01
	minimum = 0.002 (at node 2)
	maximum = 0.02 (at node 5)
Injected packet length average = 1
Accepted packet length average = 1
Total in-flight flits = 2 (0 measured)
latency change    = 1
throughput change = 1
Class 0:
Packet latency average = 26.2398
	minimum = 7
	maximum = 66
Network latency average = 26.2398
	minimum = 7
	maximum = 66
Slowest packet = 33795
Flit latency average = 26.2398
	minimum = 7
	maximum = 66
Slowest flit = 33795
Fragmentation average = 0
	minimum = 0
	maximum = 0
Injected packet rate average = 0.010875
	minimum = 0.007 (at node 7)
	maximum = 0.016 (at node 3)
Accepted packet rate average = 0.0106875
	minimum = 0.007 (at node 13)
	maximum = 0.016 (at node 5)
Injected flit rate average = 0.010875
	minimum = 0.007 (at node 7)
	maximum = 0.016 (at node 3)
Accepted flit rate average= 0.0106875
	minimum = 0.007 (at node 13)
	maximum = 0.016 (at node 5)
Injected packet length average = 1
Accepted packet length average = 1
Total in-flight flits = 3 (0 measured)
latency change    = 0.0939325
throughput change = 0.0643275
Class 0:
Packet latency average = 24.6667
	minimum = 7
	maximum = 63
Network latency average = 24.6667
	minimum = 7
	maximum = 63
Slowest packet = 33856
Flit latency average = 24.6667
	minimum = 7
	maximum = 63
Slowest flit = 33856
Fragmentation average = 0
	minimum = 0
	maximum = 0
Injected packet rate average = 0.010375
	minimum = 0.006 (at node 2)
	maximum = 0.018 (at node 15)
Accepted packet rate average = 0.010125
	minimum = 0.006 (at node 1)
	maximum = 0.018 (at node 15)
Injected flit rate average = 0.010375
	minimum = 0.006 (at node 2)
	maximum = 0.018 (at node 15)
Accepted flit rate average= 0.010125
	minimum = 0.006 (at node 1)
	maximum = 0.018 (at node 15)
Injected packet length average = 1
Accepted packet length average = 1
Total in-flight flits = 5 (0 measured)
latency change    = 0.0637743
throughput change = 0.0555556
Warmed up ...Time used is 1500 cycles
Class 0:
Packet latency average = 27.2805
	minimum = 7
	maximum = 71
Network latency average = 27.2805
	minimum = 7
	maximum = 71
Slowest packet = 33945
Flit latency average = 27.8966
	minimum = 7
	maximum = 71
Slowest flit = 33945
Fragmentation average = 0
	minimum = 0
	maximum = 0
Injected packet rate average = 0.011125
	minimum = 0.006 (at node 6)
	maximum = 0.024 (at node 2)
Accepted packet rate average = 0.010875
	minimum = 0.006 (at node 2)
	maximum = 0.02 (at node 8)
Injected flit rate average = 0.011125
	minimum = 0.006 (at node 6)
	maximum = 0.024 (at node 2)
Accepted flit rate average= 0.010875
	minimum = 0.006 (at node 2)
	maximum = 0.02 (at node 8)
Injected packet length average = 1
Accepted packet length average = 1
Total in-flight flits = 7 (7 measured)
latency change    = 0.0958128
throughput change = 0.0689655
Class 0:
Packet latency average = 26.3512
	minimum = 7
	maximum = 71
Network latency average = 26.3512
	minimum = 7
	maximum = 71
Slowest packet = 33945
Flit latency average = 26.6879
	minimum = 7
	maximum = 71
Slowest flit = 33945
Fragmentation average = 0
	minimum = 0
	maximum = 0
Injected packet rate average = 0.0105
	minimum = 0.007 (at node 14)
	maximum = 0.017 (at node 2)
Accepted packet rate average = 0.0108125
	minimum = 0.008 (at node 0)
	maximum = 0.017 (at node 8)
Injected flit rate average = 0.0105
	minimum = 0.007 (at node 14)
	maximum = 0.017 (at node 2)
Accepted flit rate average= 0.0108125
	minimum = 0.008 (at node 0)
	maximum = 0.017 (at node 8)
Injected packet length average = 1
Accepted packet length average = 1
Total in-flight flits = 0 (0 measured)
latency change    = 0.0352659
throughput change = 0.00578035
Class 0:
Packet latency average = 26.278
	minimum = 7
	maximum = 71
Network latency average = 26.278
	minimum = 7
	maximum = 71
Slowest packet = 33945
Flit latency average = 26.5163
	minimum = 7
	maximum = 71
Slowest flit = 33945
Fragmentation average = 0
	minimum = 0
	maximum = 0
Injected packet rate average = 0.01025
	minimum = 0.00733333 (at node 12)
	maximum = 0.0153333 (at node 2)
Accepted packet rate average = 0.01025
	minimum = 0.00733333 (at node 3)
	maximum = 0.0153333 (at node 8)
Injected flit rate average = 0.01025
	minimum = 0.00733333 (at node 12)
	maximum = 0.0153333 (at node 2)
Accepted flit rate average= 0.01025
	minimum = 0.00733333 (at node 3)
	maximum = 0.0153333 (at node 8)
Injected packet length average = 1
Accepted packet length average = 1
Total in-flight flits = 5 (5 measured)
latency change    = 0.00278492
throughput change = 0.054878
Class 0:
Packet latency average = 25.4557
	minimum = 7
	maximum = 71
Network latency average = 25.4557
	minimum = 7
	maximum = 71
Slowest packet = 33945
Flit latency average = 25.6511
	minimum = 7
	maximum = 71
Slowest flit = 33945
Fragmentation average = 0
	minimum = 0
	maximum = 0
Injected packet rate average = 0.00996875
	minimum = 0.0065 (at node 12)
	maximum = 0.014 (at node 2)
Accepted packet rate average = 0.0100313
	minimum = 0.0065 (at node 3)
	maximum = 0.014 (at node 8)
Injected flit rate average = 0.00996875
	minimum = 0.0065 (at node 12)
	maximum = 0.014 (at node 2)
Accepted flit rate average= 0.0100313
	minimum = 0.0065 (at node 3)
	maximum = 0.014 (at node 8)
Injected packet length average = 1
Accepted packet length average = 1
Total in-flight flits = 3 (3 measured)
latency change    = 0.0323037
throughput change = 0.0218069
Class 0:
Packet latency average = 25.495
	minimum = 7
	maximum = 71
Network latency average = 25.495
	minimum = 7
	maximum = 71
Slowest packet = 33945
Flit latency average = 25.6494
	minimum = 7
	maximum = 71
Slowest flit = 33945
Fragmentation average = 0
	minimum = 0
	maximum = 0
Injected packet rate average = 0.01025
	minimum = 0.0076 (at node 10)
	maximum = 0.0128 (at node 15)
Accepted packet rate average = 0.010125
	minimum = 0.0076 (at node 10)
	maximum = 0.0124 (at node 15)
Injected flit rate average = 0.01025
	minimum = 0.0076 (at node 10)
	maximum = 0.0128 (at node 15)
Accepted flit rate average= 0.010125
	minimum = 0.0076 (at node 10)
	maximum = 0.0124 (at node 15)
Injected packet length average = 1
Accepted packet length average = 1
Total in-flight flits = 10 (10 measured)
latency change    = 0.00154163
throughput change = 0.00925926
Class 0:
Packet latency average = 25.0795
	minimum = 7
	maximum = 71
Network latency average = 25.0795
	minimum = 7
	maximum = 71
Slowest packet = 33945
Flit latency average = 25.2133
	minimum = 7
	maximum = 71
Slowest flit = 33945
Fragmentation average = 0
	minimum = 0
	maximum = 0
Injected packet rate average = 0.0100833
	minimum = 0.00733333 (at node 3)
	maximum = 0.0133333 (at node 15)
Accepted packet rate average = 0.0100625
	minimum = 0.008 (at node 12)
	maximum = 0.0133333 (at node 15)
Injected flit rate average = 0.0100833
	minimum = 0.00733333 (at node 3)
	maximum = 0.0133333 (at node 15)
Accepted flit rate average= 0.0100625
	minimum = 0.008 (at node 12)
	maximum = 0.0133333 (at node 15)
Injected packet length average = 1
Accepted packet length average = 1
Total in-flight flits = 6 (6 measured)
latency change    = 0.0165674
throughput change = 0.00621118
Draining all recorded packets ...
Draining remaining packets ...
Time taken is 4578 cycles
====== Overall Traffic Statistics ======
====== Traffic class 0 ======
Packet latency average = 25.611 (50 samples)
	minimum = 7 (50 samples)
	maximum = 71.2 (50 samples)
Network latency average = 25.611 (50 samples)
	minimum = 7 (50 samples)
	maximum = 71.2 (50 samples)
Flit latency average = 25.7012 (50 samples)
	minimum = 7 (50 samples)
	maximum = 71.34 (50 samples)
Fragmentation average = 0 (50 samples)
	minimum = 0 (50 samples)
	maximum = 0 (50 samples)
Injected packet rate average = 0.010035 (50 samples)
	minimum = 0.00677086 (50 samples)
	maximum = 0.013514 (50 samples)
Accepted packet rate average = 0.0100283 (50 samples)
	minimum = 0.0067341 (50 samples)
	maximum = 0.0135176 (50 samples)
Injected flit rate average = 0.010035 (50 samples)
	minimum = 0.00677086 (50 samples)
	maximum = 0.013514 (50 samples)
Accepted flit rate average = 0.0100283 (50 samples)
	minimum = 0.0067341 (50 samples)
	maximum = 0.0135176 (50 samples)
Injected packet size average = 1 (50 samples)
Accepted packet size average = 1 (50 samples)
Hops average = 4.60663 (50 samples)
Total run time 1.2663
