BEGIN Configuration File: /tmp/tmpcx162baa.cfg
topology = mesh;
k = 4;
n = 2;
routing_function = planar_adapt;
num_vcs = 4;
vc_buf_size = 4;
wait_for_tail_credit = 1;
vc_allocator = islip;
sw_allocator = islip;
alloc_iters = 1;
credit_delay = 2;
routing_delay = 1;
vc_alloc_delay = 1;
sw_alloc_delay = 1;
input_speedup = 2;
output_speedup = 1;
internal_speedup = 1.0;
traffic = transpose;
packet_size = 1;
sim_type = latency;
injection_rate = 0.05;
warmup_periods = 3;
sample_period = 500;
sim_count = 50;
seed = 2;
link_failures = 4;
fail_seed = 101;

END Configuration File: /tmp/tmpcx162baa.cfg
failure at node 14, channel 0 (1/4)
failure at node 12, channel 0 (2/4)
failure at node 4, channel 2 (3/4)
failure at node 11, channel 1 (4/4)
Class 0:
Packet latency average = 32.1603
	minimum = 7
	maximum = 200
Network latency average = 32.106
	minimum = 7
	maximum = 200
Slowest packet = 251
Flit latency average = 32.106
	minimum = 7
	maximum = 200
Slowest flit = 251
Fragmentation average = 0
	minimum = 0
	maximum = 0
Injected packet rate average = 0.048875
	minimum = 0.032 (at node 5)
	maximum = 0.068 (at node 10)
Accepted packet rate average = 0.046
	minimum = 0.026 (at node 12)
	maximum = 0.068 (at node 10)
Injected flit rate average = 0.048875
	minimum = 0.032 (at node 5)
	maximum = 0.068 (at node 10)
Accepted flit rate average= 0.046
	minimum = 0.026 (at node 12)
	maximum = 0.068 (at node 10)
Injected packet length average = 1
Accepted packet length average = 1
Total in-flight flits = 23 (0 measured)
latency change    = 1
throughput change = 1
Class 0:
Packet latency average = 38.6572
	minimum = 7
	maximum = 355
Network latency average = 36.7642
	minimum = 7
	maximum = 330
Slowest packet = 432
Flit latency average = 36.7642
	minimum = 7
	maximum = 330
Slowest flit = 506
Fragmentation average = 0
	minimum = 0
	maximum = 0
Injected packet rate average = 0.0485625
	minimum = 0.037 (at node 3)
	maximum = 0.058 (at node 11)
Accepted packet rate average = 0.046125
	minimum = 0.03 (at node 12)
	maximum = 0.057 (at node 10)
Injected flit rate average = 0.0485625
	minimum = 0.037 (at node 3)
	maximum = 0.058 (at node 11)
Accepted flit rate average= 0.046125
	minimum = 0.03 (at node 12)
	maximum = 0.057 (at node 10)
Injected packet length average = 1
Accepted packet length average = 1
Total in-flight flits = 41 (0 measured)
latency change    = 0.168063
throughput change = 0.00271003
Class 0:
Packet latency average = 56.9284
	minimum = 7
	maximum = 492
Network latency average = 46.8594
	minimum = 7
	maximum = 354
Slowest packet = 637
Flit latency average = 46.8594
	minimum = 7
	maximum = 354
Slowest flit = 710
Fragmentation average = 0
	minimum = 0
	maximum = 0
Injected packet rate average = 0.045375
	minimum = 0.028 (at node 3)
	maximum = 0.056 (at node 9)
Accepted packet rate average = 0.047125
	minimum = 0.026 (at node 12)
	maximum = 0.064 (at node 7)
Injected flit rate average = 0.045375
	minimum = 0.028 (at node 3)
	maximum = 0.056 (at node 9)
Accepted flit rate average= 0.047125
	minimum = 0.026 (at node 12)
	maximum = 0.064 (at node 7)
Injected packet length average = 1
Accepted packet length average = 1
Total in-flight flits = 27 (0 measured)
latency change    = 0.320951
throughput change = 0.0212202
Warmed up ...Time used is 1500 cycles
Class 0:
Packet latency average = 43.3726
	minimum = 7
	maximum = 678
Network latency average = 35.3836
	minimum = 7
	maximum = 411
Slowest packet = 1146
Flit latency average = 43.273
	minimum = 7
	maximum = 411
Slowest flit = 1107
Fragmentation average = 0
	minimum = 0
	maximum = 0
Injected packet rate average = 0.050625
	minimum = 0.024 (at node 3)
	maximum = 0.068 (at node 1)
Accepted packet rate average = 0.049
	minimum = 0.022 (at node 12)
	maximum = 0.064 (at node 1)
Injected flit rate average = 0.050625
	minimum = 0.024 (at node 3)
	maximum = 0.068 (at node 1)
Accepted flit rate average= 0.049
	minimum = 0.022 (at node 12)
	maximum = 0.064 (at node 1)
Injected packet length average = 1
Accepted packet length average = 1
Total in-flight flits = 41 (41 measured)
latency change    = 0.312542
throughput change = 0.0382653
Class 0:
Packet latency average = 62.5989
	minimum = 7
	maximum = 929
Network latency average = 42.0996
	minimum = 7
	maximum = 411
Slowest packet = 1146
Flit latency average = 45.9303
	minimum = 7
	maximum = 411
Slowest flit = 1107
Fragmentation average = 0
	minimum = 0
	maximum = 0
Injected packet rate average = 0.0481875
	minimum = 0.024 (at node 3)
	maximum = 0.068 (at node 1)
Accepted packet rate average = 0.0475
	minimum = 0.024 (at node 12)
	maximum = 0.069 (at node 4)
Injected flit rate average = 0.0481875
	minimum = 0.024 (at node 3)
	maximum = 0.068 (at node 1)
Accepted flit rate average= 0.0475
	minimum = 0.024 (at node 12)
	maximum = 0.069 (at node 4)
Injected packet length average = 1
Accepted packet length average = 1
Total in-flight flits = 39 (39 measured)
latency change    = 0.307135
throughput change = 0.0315789
Class 0:
Packet latency average = 68.9276
	minimum = 7
	maximum = 1122
Network latency average = 42.6211
	minimum = 7
	maximum = 411
Slowest packet = 1146
Flit latency average = 45.1492
	minimum = 7
	maximum = 411
Slowest flit = 1107
Fragmentation average = 0
	minimum = 0
	maximum = 0
Injected packet rate average = 0.0480833
	minimum = 0.0253333 (at node 3)
	maximum = 0.0666667 (at node 0)
Accepted packet rate average = 0.04775
	minimum = 0.0253333 (at node 12)
	maximum = 0.066 (at node 0)
Injected flit rate average = 0.0480833
	minimum = 0.0253333 (at node 3)
	maximum = 0.0666667 (at node 0)
Accepted flit rate average= 0.04775
	minimum = 0.0253333 (at node 12)
	maximum = 0.066 (at node 0)
Injected packet length average = 1
Accepted packet length average = 1
Total in-flight flits = 35 (35 measured)
latency change    = 0.0918167
throughput change = 0.0052356
Class 0:
Packet latency average = 70.6363
	minimum = 7
	maximum = 1507
Network latency average = 42.002
	minimum = 7
	maximum = 442
Slowest packet = 1146
Flit latency average = 43.8917
	minimum = 7
	maximum = 442
Slowest flit = 2288
Fragmentation average = 0
	minimum = 0
	maximum = 0
Injected packet rate average = 0.0484687
	minimum = 0.0255 (at node 3)
	maximum = 0.0665 (at node 0)
Accepted packet rate average = 0.0481875
	minimum = 0.025 (at node 12)
	maximum = 0.0665 (at node 0)
Injected flit rate average = 0.0484687
	minimum = 0.0255 (at node 3)
	maximum = 0.0665 (at node 0)
Accepted flit rate average= 0.0481875
	minimum = 0.025 (at node 12)
	maximum = 0.0665 (at node 0)
Injected packet length average = 1
Accepted packet length average = 1
Total in-flight flits = 36 (36 measured)
latency change    = 0.02419
throughput change = 0.00907912
Class 0:
Packet latency average = 74.4706
	minimum = 7
	maximum = 1705
Network latency average = 43.2288
	minimum = 7
	maximum = 508
Slowest packet = 1146
Flit latency average = 44.7062
	minimum = 7
	maximum = 508
Slowest flit = 2519
Fragmentation average = 0
	minimum = 0
	maximum = 0
Injected packet rate average = 0.04905
	minimum = 0.0248 (at node 3)
	maximum = 0.0648 (at node 0)
Accepted packet rate average = 0.04875
	minimum = 0.0244 (at node 12)
	maximum = 0.0648 (at node 0)
Injected flit rate average = 0.04905
	minimum = 0.0248 (at node 3)
	maximum = 0.0648 (at node 0)
Accepted flit rate average= 0.04875
	minimum = 0.0244 (at node 12)
	maximum = 0.0648 (at node 0)
Injected packet length average = 1
Accepted packet length average = 1
Total in-flight flits = 40 (40 measured)
latency change    = 0.0514876
throughput change = 0.0115385
Class 0:
Packet latency average = 81.8951
	minimum = 7
	maximum = 2082
Network latency average = 43.9922
	minimum = 7
	maximum = 539
Slowest packet = 1146
Flit latency average = 45.2229
	minimum = 7
	maximum = 539
Slowest flit = 2678
Fragmentation average = 0
	minimum = 0
	maximum = 0
Injected packet rate average = 0.0486875
	minimum = 0.0243333 (at node 3)
	maximum = 0.0616667 (at node 0)
Accepted packet rate average = 0.0484167
	minimum = 0.0243333 (at node 12)
	maximum = 0.0616667 (at node 0)
Injected flit rate average = 0.0486875
	minimum = 0.0243333 (at node 3)
	maximum = 0.0616667 (at node 0)
Accepted flit rate average= 0.0484167
	minimum = 0.0243333 (at node 12)
	maximum = 0.0616667 (at node 0)
Injected packet length average = 1
Accepted packet length average = 1
Total in-flight flits = 41 (41 measured)
latency change    = 0.0906582
throughput change = 0.00688468
Class 0:
Packet latency average = 90.3648
	minimum = 7
	maximum = 2540
Network latency average = 44.4006
	minimum = 7
	maximum = 539
Slowest packet = 1146
Flit latency average = 45.4412
	minimum = 7
	maximum = 539
Slowest flit = 2678
Fragmentation average = 0
	minimum = 0
	maximum = 0
Injected packet rate average = 0.0489821
	minimum = 0.0245714 (at node 3)
	maximum = 0.0614286 (at node 0)
Accepted packet rate average = 0.0488929
	minimum = 0.0245714 (at node 12)
	maximum = 0.0614286 (at node 0)
Injected flit rate average = 0.0489821
	minimum = 0.0245714 (at node 3)
	maximum = 0.0614286 (at node 0)
Accepted flit rate average= 0.0488929
	minimum = 0.0245714 (at node 12)
	maximum = 0.0614286 (at node 0)
Injected packet length average = 1
Accepted packet length average = 1
Total in-flight flits = 32 (32 measured)
latency change    = 0.0937282
throughput change = 0.00973947
Draining all recorded packets ...
Class 0:
Remaining flits: 4266 4372 4468 4506 4549 4568 4579 4584 4586 4591 [...] (39 flits)
Measured flits: 4266 4372 4468 4506 4579 4584 4591 4661 4673 (9 flits)
Class 0:
Remaining flits: 5238 5304 5315 5321 5329 5330 5360 5363 5379 5388 [...] (38 flits)
Measured flits: 5238 5304 5315 5321 5330 5400 5406 5412 5445 (9 flits)
Class 0:
Remaining flits: 6004 6041 6049 6094 6100 6115 6130 6141 6148 6152 [...] (36 flits)
Measured flits: 6004 6041 6049 6141 6152 6154 6158 6222 (8 flits)
Class 0:
Remaining flits: 6641 6669 6784 6792 6804 6832 6836 6855 6874 6877 [...] (46 flits)
Measured flits: 6641 6669 6784 6792 6892 6894 6919 (7 flits)
Draining remaining packets ...
Time taken is 9947 cycles
Class 0:
Packet latency average = 26.4518
	minimum = 7
	maximum = 163
Network latency average = 26.2975
	minimum = 7
	maximum = 151
Slowest packet = 7848
Flit latency average = 26.2975
	minimum = 7
	maximum = 151
Slowest flit = 7848
Fragmentation average = 0
	minimum = 0
	maximum = 0
Injected packet rate average = 0.049
	minimum = 0.026 (at node 2)
	maximum = 0.072 (at node 15)
Accepted packet rate average = 0.045375
	minimum = 0.022 (at node 8)
	maximum = 0.072 (at node 15)
Injected flit rate average = 0.049
	minimum = 0.026 (at node 2)
	maximum = 0.072 (at node 15)
Accepted flit rate average= 0.045375
	minimum = 0.022 (at node 8)
	maximum = 0.072 (at node 15)
Injected packet length average = 1
Accepted packet length average = 1
Total in-flight flits = 30 (0 measured)
latency change    = 1
throughput change = 1
Class 0:
Packet latency average = 35.0013
	minimum = 7
	maximum = 346
Network latency average = 33.3285
	minimum = 7
	maximum = 346
Slowest packet = 8069
Flit latency average = 33.3285
	minimum = 7
	maximum = 346
Slowest flit = 8069
Fragmentation average = 0
	minimum = 0
	maximum = 0
Injected packet rate average = 0.04975
	minimum = 0.037 (at node 2)
	maximum = 0.064 (at node 7)
Accepted packet rate average = 0.047375
	minimum = 0.029 (at node 8)
	maximum = 0.062 (at node 13)
Injected flit rate average = 0.04975
	minimum = 0.037 (at node 2)
	maximum = 0.064 (at node 7)
Accepted flit rate average= 0.047375
	minimum = 0.029 (at node 8)
	maximum = 0.062 (at node 13)
Injected packet length average = 1
Accepted packet length average = 1
Total in-flight flits = 41 (0 measured)
latency change    = 0.244263
throughput change = 0.0422164
Class 0:
Packet latency average = 54.6998
	minimum = 7
	maximum = 528
Network latency average = 45.1737
	minimum = 7
	maximum = 475
Slowest packet = 8362
Flit latency average = 45.1737
	minimum = 7
	maximum = 475
Slowest flit = 8362
Fragmentation average = 0
	minimum = 0
	maximum = 0
Injected packet rate average = 0.0515
	minimum = 0.024 (at node 3)
	maximum = 0.066 (at node 4)
Accepted packet rate average = 0.050375
	minimum = 0.024 (at node 12)
	maximum = 0.064 (at node 1)
Injected flit rate average = 0.0515
	minimum = 0.024 (at node 3)
	maximum = 0.066 (at node 4)
Accepted flit rate average= 0.050375
	minimum = 0.024 (at node 12)
	maximum = 0.064 (at node 1)
Injected packet length average = 1
Accepted packet length average = 1
Total in-flight flits = 49 (0 measured)
latency change    = 0.360119
throughput change = 0.0595533
Warmed up ...Time used is 1500 cycles
Class 0:
Packet latency average = 51.5133
	minimum = 7
	maximum = 798
Network latency average = 34.882
	minimum = 7
	maximum = 360
Slowest packet = 8810
Flit latency average = 49.1881
	minimum = 7
	maximum = 501
Slowest flit = 8612
Fragmentation average = 0
	minimum = 0
	maximum = 0
Injected packet rate average = 0.047875
	minimum = 0.024 (at node 3)
	maximum = 0.062 (at node 0)
Accepted packet rate average = 0.0485
	minimum = 0.028 (at node 12)
	maximum = 0.064 (at node 13)
Injected flit rate average = 0.047875
	minimum = 0.024 (at node 3)
	maximum = 0.062 (at node 0)
Accepted flit rate average= 0.0485
	minimum = 0.028 (at node 12)
	maximum = 0.064 (at node 13)
Injected packet length average = 1
Accepted packet length average = 1
Total in-flight flits = 46 (46 measured)
latency change    = 0.0618574
throughput change = 0.0386598
Class 0:
Packet latency average = 70.7374
	minimum = 7
	maximum = 1091
Network latency average = 43.0922
	minimum = 7
	maximum = 473
Slowest packet = 8810
Flit latency average = 49.8222
	minimum = 7
	maximum = 501
Slowest flit = 8612
Fragmentation average = 0
	minimum = 0
	maximum = 0
Injected packet rate average = 0.04775
	minimum = 0.024 (at node 3)
	maximum = 0.061 (at node 7)
Accepted packet rate average = 0.0478125
	minimum = 0.025 (at node 12)
	maximum = 0.064 (at node 13)
Injected flit rate average = 0.04775
	minimum = 0.024 (at node 3)
	maximum = 0.061 (at node 7)
Accepted flit rate average= 0.0478125
	minimum = 0.025 (at node 12)
	maximum = 0.064 (at node 13)
Injected packet length average = 1
Accepted packet length average = 1
Total in-flight flits = 49 (49 measured)
latency change    = 0.271768
throughput change = 0.0143791
Class 0:
Packet latency average = 77.5049
	minimum = 7
	maximum = 1472
Network latency average = 44.8742
	minimum = 7
	maximum = 560
Slowest packet = 8810
Flit latency average = 49.2298
	minimum = 7
	maximum = 560
Slowest flit = 9473
Fragmentation average = 0
	minimum = 0
	maximum = 0
Injected packet rate average = 0.0480417
	minimum = 0.0246667 (at node 3)
	maximum = 0.058 (at node 0)
Accepted packet rate average = 0.0484167
	minimum = 0.0246667 (at node 12)
	maximum = 0.06 (at node 13)
Injected flit rate average = 0.0480417
	minimum = 0.0246667 (at node 3)
	maximum = 0.058 (at node 0)
Accepted flit rate average= 0.0484167
	minimum = 0.0246667 (at node 12)
	maximum = 0.06 (at node 13)
Injected packet length average = 1
Accepted packet length average = 1
Total in-flight flits = 39 (39 measured)
latency change    = 0.0873172
throughput change = 0.0124785
Class 0:
Packet latency average = 86.4184
	minimum = 7
	maximum = 1572
Network latency average = 43.8751
	minimum = 7
	maximum = 560
Slowest packet = 8810
Flit latency average = 47.1977
	minimum = 7
	maximum = 560
Slowest flit = 9473
Fragmentation average = 0
	minimum = 0
	maximum = 0
Injected packet rate average = 0.0475937
	minimum = 0.0295 (at node 3)
	maximum = 0.0575 (at node 0)
Accepted packet rate average = 0.0480625
	minimum = 0.029 (at node 12)
	maximum = 0.058 (at node 2)
Injected flit rate average = 0.0475937
	minimum = 0.0295 (at node 3)
	maximum = 0.0575 (at node 0)
Accepted flit rate average= 0.0480625
	minimum = 0.029 (at node 12)
	maximum = 0.058 (at node 2)
Injected packet length average = 1
Accepted packet length average = 1
Total in-flight flits = 34 (34 measured)
latency change    = 0.103143
throughput change = 0.00736888
Class 0:
Packet latency average = 88.019
	minimum = 7
	maximum = 1681
Network latency average = 43.6091
	minimum = 7
	maximum = 560
Slowest packet = 8810
Flit latency average = 46.2404
	minimum = 7
	maximum = 560
Slowest flit = 9473
Fragmentation average = 0
	minimum = 0
	maximum = 0
Injected packet rate average = 0.048325
	minimum = 0.0292 (at node 3)
	maximum = 0.058 (at node 0)
Accepted packet rate average = 0.048675
	minimum = 0.0292 (at node 12)
	maximum = 0.058 (at node 0)
Injected flit rate average = 0.048325
	minimum = 0.0292 (at node 3)
	maximum = 0.058 (at node 0)
Accepted flit rate average= 0.048675
	minimum = 0.0292 (at node 12)
	maximum = 0.058 (at node 0)
Injected packet length average = 1
Accepted packet length average = 1
Total in-flight flits = 36 (36 measured)
latency change    = 0.0181843
throughput change = 0.0125835
Class 0:
Packet latency average = 90.9033
	minimum = 7
	maximum = 1973
Network latency average = 43.659
	minimum = 7
	maximum = 560
Slowest packet = 8810
Flit latency average = 45.8729
	minimum = 7
	maximum = 560
Slowest flit = 9473
Fragmentation average = 0
	minimum = 0
	maximum = 0
Injected packet rate average = 0.0478958
	minimum = 0.0293333 (at node 3)
	maximum = 0.0583333 (at node 0)
Accepted packet rate average = 0.0481875
	minimum = 0.029 (at node 12)
	maximum = 0.0583333 (at node 0)
Injected flit rate average = 0.0478958
	minimum = 0.0293333 (at node 3)
	maximum = 0.0583333 (at node 0)
Accepted flit rate average= 0.0481875
	minimum = 0.029 (at node 12)
	maximum = 0.0583333 (at node 0)
Injected packet length average = 1
Accepted packet length average = 1
Total in-flight flits = 35 (35 measured)
latency change    = 0.0317293
throughput change = 0.0101167
Class 0:
Packet latency average = 93.0255
	minimum = 7
	maximum = 2146
Network latency average = 44.0369
	minimum = 7
	maximum = 560
Slowest packet = 8810
Flit latency average = 45.9443
	minimum = 7
	maximum = 560
Slowest flit = 9473
Fragmentation average = 0
	minimum = 0
	maximum = 0
Injected packet rate average = 0.0475893
	minimum = 0.0277143 (at node 3)
	maximum = 0.0554286 (at node 8)
Accepted packet rate average = 0.0477679
	minimum = 0.0282857 (at node 12)
	maximum = 0.0554286 (at node 2)
Injected flit rate average = 0.0475893
	minimum = 0.0277143 (at node 3)
	maximum = 0.0554286 (at node 8)
Accepted flit rate average= 0.0477679
	minimum = 0.0282857 (at node 12)
	maximum = 0.0554286 (at node 2)
Injected packet length average = 1
Accepted packet length average = 1
Total in-flight flits = 40 (40 measured)
latency change    = 0.0228136
throughput change = 0.00878505
Draining all recorded packets ...
Class 0:
Remaining flits: 12095 12105 12107 12123 12137 12165 12168 12176 12178 12182 [...] (34 flits)
Measured flits: 12105 12107 12123 12176 12185 12188 12207 12223 12231 12242 [...] (11 flits)
Class 0:
Remaining flits: 12808 12827 12840 12928 12938 12939 12950 12953 12956 12962 [...] (36 flits)
Measured flits: 12808 12827 12840 12939 12953 12956 12962 13029 13034 13042 [...] (11 flits)
Class 0:
Remaining flits: 13631 13656 13662 13691 13698 13708 13711 13730 13741 13752 [...] (35 flits)
Measured flits: 13631 13656 13662 13691 13708 13771 13780 13790 13805 (9 flits)
Draining remaining packets ...
Time taken is 8869 cycles
Class 0:
Packet latency average = 35.3579
	minimum = 7
	maximum = 333
Network latency average = 35.0939
	minimum = 7
	maximum = 332
Slowest packet = 14452
Flit latency average = 35.0939
	minimum = 7
	maximum = 332
Slowest flit = 14452
Fragmentation average = 0
	minimum = 0
	maximum = 0
Injected packet rate average = 0.05375
	minimum = 0.03 (at node 14)
	maximum = 0.07 (at node 6)
Accepted packet rate average = 0.04925
	minimum = 0.028 (at node 11)
	maximum = 0.068 (at node 15)
Injected flit rate average = 0.05375
	minimum = 0.03 (at node 14)
	maximum = 0.07 (at node 6)
Accepted flit rate average= 0.04925
	minimum = 0.028 (at node 11)
	maximum = 0.068 (at node 15)
Injected packet length average = 1
Accepted packet length average = 1
Total in-flight flits = 38 (0 measured)
latency change    = 1
throughput change = 1
Class 0:
Packet latency average = 43.2738
	minimum = 7
	maximum = 485
Network latency average = 39.8067
	minimum = 7
	maximum = 404
Slowest packet = 14619
Flit latency average = 39.8067
	minimum = 7
	maximum = 404
Slowest flit = 14619
Fragmentation average = 0
	minimum = 0
	maximum = 0
Injected packet rate average = 0.0481875
	minimum = 0.036 (at node 9)
	maximum = 0.063 (at node 6)
Accepted packet rate average = 0.0465625
	minimum = 0.03 (at node 12)
	maximum = 0.061 (at node 9)
Injected flit rate average = 0.0481875
	minimum = 0.036 (at node 9)
	maximum = 0.063 (at node 6)
Accepted flit rate average= 0.0465625
	minimum = 0.03 (at node 12)
	maximum = 0.061 (at node 9)
Injected packet length average = 1
Accepted packet length average = 1
Total in-flight flits = 27 (0 measured)
latency change    = 0.182927
throughput change = 0.0577181
Class 0:
Packet latency average = 54.0859
	minimum = 7
	maximum = 630
Network latency average = 37.851
	minimum = 7
	maximum = 323
Slowest packet = 15004
Flit latency average = 37.851
	minimum = 7
	maximum = 323
Slowest flit = 15014
Fragmentation average = 0
	minimum = 0
	maximum = 0
Injected packet rate average = 0.050875
	minimum = 0.03 (at node 2)
	maximum = 0.076 (at node 10)
Accepted packet rate average = 0.0495
	minimum = 0.028 (at node 8)
	maximum = 0.074 (at node 10)
Injected flit rate average = 0.050875
	minimum = 0.03 (at node 2)
	maximum = 0.076 (at node 10)
Accepted flit rate average= 0.0495
	minimum = 0.028 (at node 8)
	maximum = 0.074 (at node 10)
Injected packet length average = 1
Accepted packet length average = 1
Total in-flight flits = 39 (0 measured)
latency change    = 0.199905
throughput change = 0.0593434
Warmed up ...Time used is 1500 cycles
Class 0:
Packet latency average = 36.0938
	minimum = 7
	maximum = 572
Network latency average = 31.3062
	minimum = 7
	maximum = 204
Slowest packet = 15599
Flit latency average = 40.8579
	minimum = 7
	maximum = 494
Slowest flit = 15500
Fragmentation average = 0
	minimum = 0
	maximum = 0
Injected packet rate average = 0.0445
	minimum = 0.022 (at node 3)
	maximum = 0.058 (at node 2)
Accepted packet rate average = 0.044875
	minimum = 0.028 (at node 12)
	maximum = 0.062 (at node 7)
Injected flit rate average = 0.0445
	minimum = 0.022 (at node 3)
	maximum = 0.058 (at node 2)
Accepted flit rate average= 0.044875
	minimum = 0.028 (at node 12)
	maximum = 0.062 (at node 7)
Injected packet length average = 1
Accepted packet length average = 1
Total in-flight flits = 35 (35 measured)
latency change    = 0.498483
throughput change = 0.103064
Class 0:
Packet latency average = 51.5869
	minimum = 7
	maximum = 939
Network latency average = 39.2796
	minimum = 7
	maximum = 501
Slowest packet = 15599
Flit latency average = 43.3931
	minimum = 7
	maximum = 501
Slowest flit = 15596
Fragmentation average = 0
	minimum = 0
	maximum = 0
Injected packet rate average = 0.047125
	minimum = 0.023 (at node 3)
	maximum = 0.059 (at node 9)
Accepted packet rate average = 0.047375
	minimum = 0.026 (at node 12)
	maximum = 0.059 (at node 6)
Injected flit rate average = 0.047125
	minimum = 0.023 (at node 3)
	maximum = 0.059 (at node 9)
Accepted flit rate average= 0.047375
	minimum = 0.026 (at node 12)
	maximum = 0.059 (at node 6)
Injected packet length average = 1
Accepted packet length average = 1
Total in-flight flits = 36 (36 measured)
latency change    = 0.300331
throughput change = 0.0527704
Class 0:
Packet latency average = 64.9433
	minimum = 7
	maximum = 1112
Network latency average = 42.5683
	minimum = 7
	maximum = 501
Slowest packet = 15599
Flit latency average = 45.1659
	minimum = 7
	maximum = 501
Slowest flit = 15596
Fragmentation average = 0
	minimum = 0
	maximum = 0
Injected packet rate average = 0.04775
	minimum = 0.0266667 (at node 3)
	maximum = 0.0586667 (at node 8)
Accepted packet rate average = 0.0479583
	minimum = 0.028 (at node 12)
	maximum = 0.0566667 (at node 2)
Injected flit rate average = 0.04775
	minimum = 0.0266667 (at node 3)
	maximum = 0.0586667 (at node 8)
Accepted flit rate average= 0.0479583
	minimum = 0.028 (at node 12)
	maximum = 0.0566667 (at node 2)
Injected packet length average = 1
Accepted packet length average = 1
Total in-flight flits = 34 (34 measured)
latency change    = 0.205663
throughput change = 0.0121633
Class 0:
Packet latency average = 70.5875
	minimum = 7
	maximum = 1289
Network latency average = 43.2799
	minimum = 7
	maximum = 501
Slowest packet = 15599
Flit latency average = 45.2223
	minimum = 7
	maximum = 501
Slowest flit = 15596
Fragmentation average = 0
	minimum = 0
	maximum = 0
Injected packet rate average = 0.0475625
	minimum = 0.027 (at node 3)
	maximum = 0.0595 (at node 6)
Accepted packet rate average = 0.0476562
	minimum = 0.028 (at node 12)
	maximum = 0.058 (at node 9)
Injected flit rate average = 0.0475625
	minimum = 0.027 (at node 3)
	maximum = 0.0595 (at node 6)
Accepted flit rate average= 0.0476562
	minimum = 0.028 (at node 12)
	maximum = 0.058 (at node 9)
Injected packet length average = 1
Accepted packet length average = 1
Total in-flight flits = 37 (37 measured)
latency change    = 0.0799595
throughput change = 0.0063388
Class 0:
Packet latency average = 75.3866
	minimum = 7
	maximum = 1429
Network latency average = 44.4086
	minimum = 7
	maximum = 501
Slowest packet = 15599
Flit latency average = 45.9452
	minimum = 7
	maximum = 501
Slowest flit = 15596
Fragmentation average = 0
	minimum = 0
	maximum = 0
Injected packet rate average = 0.0474
	minimum = 0.0264 (at node 3)
	maximum = 0.0596 (at node 6)
Accepted packet rate average = 0.047475
	minimum = 0.0272 (at node 12)
	maximum = 0.0596 (at node 9)
Injected flit rate average = 0.0474
	minimum = 0.0264 (at node 3)
	maximum = 0.0596 (at node 6)
Accepted flit rate average= 0.047475
	minimum = 0.0272 (at node 12)
	maximum = 0.0596 (at node 9)
Injected packet length average = 1
Accepted packet length average = 1
Total in-flight flits = 37 (37 measured)
latency change    = 0.0636596
throughput change = 0.0038178
Class 0:
Packet latency average = 80.0089
	minimum = 7
	maximum = 1801
Network latency average = 45.4155
	minimum = 7
	maximum = 501
Slowest packet = 15599
Flit latency average = 46.6704
	minimum = 7
	maximum = 501
Slowest flit = 15596
Fragmentation average = 0
	minimum = 0
	maximum = 0
Injected packet rate average = 0.0477917
	minimum = 0.026 (at node 3)
	maximum = 0.058 (at node 6)
Accepted packet rate average = 0.0477917
	minimum = 0.0266667 (at node 12)
	maximum = 0.0576667 (at node 9)
Injected flit rate average = 0.0477917
	minimum = 0.026 (at node 3)
	maximum = 0.058 (at node 6)
Accepted flit rate average= 0.0477917
	minimum = 0.0266667 (at node 12)
	maximum = 0.0576667 (at node 9)
Injected packet length average = 1
Accepted packet length average = 1
Total in-flight flits = 40 (40 measured)
latency change    = 0.0577725
throughput change = 0.00662598
Class 0:
Packet latency average = 85.4601
	minimum = 7
	maximum = 2027
Network latency average = 45.5849
	minimum = 7
	maximum = 501
Slowest packet = 15599
Flit latency average = 46.6559
	minimum = 7
	maximum = 501
Slowest flit = 15596
Fragmentation average = 0
	minimum = 0
	maximum = 0
Injected packet rate average = 0.0478036
	minimum = 0.0262857 (at node 3)
	maximum = 0.0565714 (at node 6)
Accepted packet rate average = 0.0478929
	minimum = 0.0265714 (at node 12)
	maximum = 0.0565714 (at node 9)
Injected flit rate average = 0.0478036
	minimum = 0.0262857 (at node 3)
	maximum = 0.0565714 (at node 6)
Accepted flit rate average= 0.0478929
	minimum = 0.0265714 (at node 12)
	maximum = 0.0565714 (at node 9)
Injected packet length average = 1
Accepted packet length average = 1
Total in-flight flits = 34 (34 measured)
latency change    = 0.0637867
throughput change = 0.00211285
Draining all recorded packets ...
Class 0:
Remaining flits: 18724 18805 18813 18826 18832 18843 18864 18881 18884 18891 [...] (35 flits)
Measured flits: 18724 18805 18813 18826 18913 18925 18940 18946 (8 flits)
Class 0:
Remaining flits: 19485 19541 19567 19583 19601 19643 19645 19647 19651 19653 [...] (39 flits)
Measured flits: 19485 19541 19567 19583 19653 19660 19668 19742 (8 flits)
Class 0:
Remaining flits: 20268 20328 20336 20342 20358 20371 20383 20385 20393 20396 [...] (37 flits)
Measured flits: 20268 20328 20342 20371 20385 20393 20399 20443 20457 (9 flits)
Draining remaining packets ...
Time taken is 8304 cycles
Class 0:
Packet latency average = 28.0169
	minimum = 7
	maximum = 96
Network latency average = 27.8648
	minimum = 7
	maximum = 96
Slowest packet = 20905
Flit latency average = 27.8648
	minimum = 7
	maximum = 96
Slowest flit = 20905
Fragmentation average = 0
	minimum = 0
	maximum = 0
Injected packet rate average = 0.047875
	minimum = 0.026 (at node 2)
	maximum = 0.074 (at node 4)
Accepted packet rate average = 0.044375
	minimum = 0.024 (at node 8)
	maximum = 0.074 (at node 1)
Injected flit rate average = 0.047875
	minimum = 0.026 (at node 2)
	maximum = 0.074 (at node 4)
Accepted flit rate average= 0.044375
	minimum = 0.024 (at node 8)
	maximum = 0.074 (at node 1)
Injected packet length average = 1
Accepted packet length average = 1
Total in-flight flits = 29 (0 measured)
latency change    = 1
throughput change = 1
Class 0:
Packet latency average = 29.7784
	minimum = 7
	maximum = 149
Network latency average = 29.4581
	minimum = 7
	maximum = 149
Slowest packet = 21270
Flit latency average = 29.4581
	minimum = 7
	maximum = 149
Slowest flit = 21270
Fragmentation average = 0
	minimum = 0
	maximum = 0
Injected packet rate average = 0.048
	minimum = 0.03 (at node 2)
	maximum = 0.061 (at node 12)
Accepted packet rate average = 0.04625
	minimum = 0.028 (at node 8)
	maximum = 0.058 (at node 3)
Injected flit rate average = 0.048
	minimum = 0.03 (at node 2)
	maximum = 0.061 (at node 12)
Accepted flit rate average= 0.04625
	minimum = 0.028 (at node 8)
	maximum = 0.058 (at node 3)
Injected packet length average = 1
Accepted packet length average = 1
Total in-flight flits = 29 (0 measured)
latency change    = 0.0591529
throughput change = 0.0405405
Class 0:
Packet latency average = 39.2888
	minimum = 7
	maximum = 295
Network latency average = 37.1862
	minimum = 7
	maximum = 263
Slowest packet = 21422
Flit latency average = 37.1862
	minimum = 7
	maximum = 263
Slowest flit = 21422
Fragmentation average = 0
	minimum = 0
	maximum = 0
Injected packet rate average = 0.054
	minimum = 0.034 (at node 13)
	maximum = 0.074 (at node 11)
Accepted packet rate average = 0.052375
	minimum = 0.032 (at node 12)
	maximum = 0.074 (at node 14)
Injected flit rate average = 0.054
	minimum = 0.034 (at node 13)
	maximum = 0.074 (at node 11)
Accepted flit rate average= 0.052375
	minimum = 0.032 (at node 12)
	maximum = 0.074 (at node 14)
Injected packet length average = 1
Accepted packet length average = 1
Total in-flight flits = 43 (0 measured)
latency change    = 0.242064
throughput change = 0.116945
Warmed up ...Time used is 1500 cycles
Class 0:
Packet latency average = 50.7175
	minimum = 7
	maximum = 552
Network latency average = 37.8615
	minimum = 7
	maximum = 379
Slowest packet = 21826
Flit latency average = 48.8861
	minimum = 7
	maximum = 405
Slowest flit = 21707
Fragmentation average = 0
	minimum = 0
	maximum = 0
Injected packet rate average = 0.049625
	minimum = 0.024 (at node 3)
	maximum = 0.062 (at node 7)
Accepted packet rate average = 0.0505
	minimum = 0.024 (at node 12)
	maximum = 0.062 (at node 10)
Injected flit rate average = 0.049625
	minimum = 0.024 (at node 3)
	maximum = 0.062 (at node 7)
Accepted flit rate average= 0.0505
	minimum = 0.024 (at node 12)
	maximum = 0.062 (at node 10)
Injected packet length average = 1
Accepted packet length average = 1
Total in-flight flits = 36 (36 measured)
latency change    = 0.22534
throughput change = 0.0371287
Class 0:
Packet latency average = 63.1762
	minimum = 7
	maximum = 810
Network latency average = 43.6721
	minimum = 7
	maximum = 420
Slowest packet = 21826
Flit latency average = 49.0551
	minimum = 7
	maximum = 420
Slowest flit = 22100
Fragmentation average = 0
	minimum = 0
	maximum = 0
Injected packet rate average = 0.0485
	minimum = 0.025 (at node 3)
	maximum = 0.067 (at node 7)
Accepted packet rate average = 0.0488125
	minimum = 0.025 (at node 12)
	maximum = 0.066 (at node 13)
Injected flit rate average = 0.0485
	minimum = 0.025 (at node 3)
	maximum = 0.067 (at node 7)
Accepted flit rate average= 0.0488125
	minimum = 0.025 (at node 12)
	maximum = 0.066 (at node 13)
Injected packet length average = 1
Accepted packet length average = 1
Total in-flight flits = 39 (39 measured)
latency change    = 0.197206
throughput change = 0.0345711
Class 0:
Packet latency average = 71.2842
	minimum = 7
	maximum = 1004
Network latency average = 44.3152
	minimum = 7
	maximum = 420
Slowest packet = 21826
Flit latency average = 47.7841
	minimum = 7
	maximum = 420
Slowest flit = 22100
Fragmentation average = 0
	minimum = 0
	maximum = 0
Injected packet rate average = 0.049875
	minimum = 0.0246667 (at node 3)
	maximum = 0.066 (at node 7)
Accepted packet rate average = 0.0501667
	minimum = 0.024 (at node 12)
	maximum = 0.0666667 (at node 13)
Injected flit rate average = 0.049875
	minimum = 0.0246667 (at node 3)
	maximum = 0.066 (at node 7)
Accepted flit rate average= 0.0501667
	minimum = 0.024 (at node 12)
	maximum = 0.0666667 (at node 13)
Injected packet length average = 1
Accepted packet length average = 1
Total in-flight flits = 37 (37 measured)
latency change    = 0.113743
throughput change = 0.0269934
Class 0:
Packet latency average = 80.4765
	minimum = 7
	maximum = 1156
Network latency average = 44.7847
	minimum = 7
	maximum = 420
Slowest packet = 21826
Flit latency average = 47.3921
	minimum = 7
	maximum = 420
Slowest flit = 22100
Fragmentation average = 0
	minimum = 0
	maximum = 0
Injected packet rate average = 0.0495312
	minimum = 0.025 (at node 3)
	maximum = 0.061 (at node 15)
Accepted packet rate average = 0.0498125
	minimum = 0.0245 (at node 12)
	maximum = 0.0615 (at node 15)
Injected flit rate average = 0.0495312
	minimum = 0.025 (at node 3)
	maximum = 0.061 (at node 15)
Accepted flit rate average= 0.0498125
	minimum = 0.0245 (at node 12)
	maximum = 0.0615 (at node 15)
Injected packet length average = 1
Accepted packet length average = 1
Total in-flight flits = 35 (35 measured)
latency change    = 0.114223
throughput change = 0.00711
Class 0:
Packet latency average = 86.5108
	minimum = 7
	maximum = 1384
Network latency average = 44.9347
	minimum = 7
	maximum = 420
Slowest packet = 21826
Flit latency average = 47.0211
	minimum = 7
	maximum = 420
Slowest flit = 22100
Fragmentation average = 0
	minimum = 0
	maximum = 0
Injected packet rate average = 0.049525
	minimum = 0.0248 (at node 3)
	maximum = 0.0636 (at node 15)
Accepted packet rate average = 0.049725
	minimum = 0.024 (at node 12)
	maximum = 0.064 (at node 15)
Injected flit rate average = 0.049525
	minimum = 0.0248 (at node 3)
	maximum = 0.0636 (at node 15)
Accepted flit rate average= 0.049725
	minimum = 0.024 (at node 12)
	maximum = 0.064 (at node 15)
Injected packet length average = 1
Accepted packet length average = 1
Total in-flight flits = 36 (36 measured)
latency change    = 0.0697523
throughput change = 0.00175968
Class 0:
Packet latency average = 95.5612
	minimum = 7
	maximum = 1719
Network latency average = 45.4978
	minimum = 7
	maximum = 420
Slowest packet = 21826
Flit latency average = 47.2438
	minimum = 7
	maximum = 420
Slowest flit = 22100
Fragmentation average = 0
	minimum = 0
	maximum = 0
Injected packet rate average = 0.0493333
	minimum = 0.0243333 (at node 3)
	maximum = 0.0623333 (at node 15)
Accepted packet rate average = 0.0492292
	minimum = 0.0243333 (at node 12)
	maximum = 0.062 (at node 15)
Injected flit rate average = 0.0493333
	minimum = 0.0243333 (at node 3)
	maximum = 0.0623333 (at node 15)
Accepted flit rate average= 0.0492292
	minimum = 0.0243333 (at node 12)
	maximum = 0.062 (at node 15)
Injected packet length average = 1
Accepted packet length average = 1
Total in-flight flits = 49 (49 measured)
latency change    = 0.094708
throughput change = 0.0100719
Class 0:
Packet latency average = 102.595
	minimum = 7
	maximum = 2057
Network latency average = 45.513
	minimum = 7
	maximum = 499
Slowest packet = 21826
Flit latency average = 47.0043
	minimum = 7
	maximum = 499
Slowest flit = 24053
Fragmentation average = 0
	minimum = 0
	maximum = 0
Injected packet rate average = 0.0492679
	minimum = 0.0251429 (at node 3)
	maximum = 0.0617143 (at node 15)
Accepted packet rate average = 0.0493929
	minimum = 0.0245714 (at node 12)
	maximum = 0.0617143 (at node 15)
Injected flit rate average = 0.0492679
	minimum = 0.0251429 (at node 3)
	maximum = 0.0617143 (at node 15)
Accepted flit rate average= 0.0493929
	minimum = 0.0245714 (at node 12)
	maximum = 0.0617143 (at node 15)
Injected packet length average = 1
Accepted packet length average = 1
Total in-flight flits = 37 (37 measured)
latency change    = 0.0685549
throughput change = 0.00331405
Draining all recorded packets ...
Class 0:
Remaining flits: 25009 25023 25137 25162 25177 25200 25205 25213 25228 25257 [...] (30 flits)
Measured flits: 25009 25023 25137 25162 25177 25200 25271 25307 25321 25331 (10 flits)
Class 0:
Remaining flits: 25772 25870 25918 25951 25973 25978 25994 25996 26015 26023 [...] (42 flits)
Measured flits: 25772 25870 25918 25994 26026 26028 26044 26090 (8 flits)
Class 0:
Remaining flits: 26561 26634 26673 26728 26748 26753 26765 26767 26781 26786 [...] (40 flits)
Measured flits: 26561 26634 26673 26753 26781 26810 26824 26848 (8 flits)
Draining remaining packets ...
Time taken is 8785 cycles
Class 0:
Packet latency average = 28.3354
	minimum = 7
	maximum = 193
Network latency average = 28.2134
	minimum = 7
	maximum = 193
Slowest packet = 27543
Flit latency average = 28.2134
	minimum = 7
	maximum = 193
Slowest flit = 27543
Fragmentation average = 0
	minimum = 0
	maximum = 0
Injected packet rate average = 0.0445
	minimum = 0.028 (at node 10)
	maximum = 0.06 (at node 2)
Accepted packet rate average = 0.041
	minimum = 0.018 (at node 12)
	maximum = 0.052 (at node 9)
Injected flit rate average = 0.0445
	minimum = 0.028 (at node 10)
	maximum = 0.06 (at node 2)
Accepted flit rate average= 0.041
	minimum = 0.018 (at node 12)
	maximum = 0.052 (at node 9)
Injected packet length average = 1
Accepted packet length average = 1
Total in-flight flits = 30 (0 measured)
latency change    = 1
throughput change = 1
Class 0:
Packet latency average = 39.6019
	minimum = 7
	maximum = 394
Network latency average = 37.1888
	minimum = 7
	maximum = 357
Slowest packet = 27666
Flit latency average = 37.1888
	minimum = 7
	maximum = 357
Slowest flit = 27666
Fragmentation average = 0
	minimum = 0
	maximum = 0
Injected packet rate average = 0.0480625
	minimum = 0.031 (at node 3)
	maximum = 0.06 (at node 0)
Accepted packet rate average = 0.0456875
	minimum = 0.025 (at node 12)
	maximum = 0.059 (at node 0)
Injected flit rate average = 0.0480625
	minimum = 0.031 (at node 3)
	maximum = 0.06 (at node 0)
Accepted flit rate average= 0.0456875
	minimum = 0.025 (at node 12)
	maximum = 0.059 (at node 0)
Injected packet length average = 1
Accepted packet length average = 1
Total in-flight flits = 41 (0 measured)
latency change    = 0.284495
throughput change = 0.102599
Class 0:
Packet latency average = 58.0026
	minimum = 7
	maximum = 662
Network latency average = 44.718
	minimum = 7
	maximum = 395
Slowest packet = 27905
Flit latency average = 44.718
	minimum = 7
	maximum = 395
Slowest flit = 27943
Fragmentation average = 0
	minimum = 0
	maximum = 0
Injected packet rate average = 0.047125
	minimum = 0.026 (at node 3)
	maximum = 0.062 (at node 5)
Accepted packet rate average = 0.047875
	minimum = 0.022 (at node 12)
	maximum = 0.062 (at node 0)
Injected flit rate average = 0.047125
	minimum = 0.026 (at node 3)
	maximum = 0.062 (at node 5)
Accepted flit rate average= 0.047875
	minimum = 0.022 (at node 12)
	maximum = 0.062 (at node 0)
Injected packet length average = 1
Accepted packet length average = 1
Total in-flight flits = 35 (0 measured)
latency change    = 0.317239
throughput change = 0.0456919
Warmed up ...Time used is 1500 cycles
Class 0:
Packet latency average = 51.0587
	minimum = 7
	maximum = 915
Network latency average = 34.5531
	minimum = 7
	maximum = 314
Slowest packet = 28508
Flit latency average = 44.4835
	minimum = 7
	maximum = 337
Slowest flit = 28266
Fragmentation average = 0
	minimum = 0
	maximum = 0
Injected packet rate average = 0.048875
	minimum = 0.03 (at node 6)
	maximum = 0.07 (at node 5)
Accepted packet rate average = 0.049125
	minimum = 0.03 (at node 9)
	maximum = 0.07 (at node 5)
Injected flit rate average = 0.048875
	minimum = 0.03 (at node 6)
	maximum = 0.07 (at node 5)
Accepted flit rate average= 0.049125
	minimum = 0.03 (at node 9)
	maximum = 0.07 (at node 5)
Injected packet length average = 1
Accepted packet length average = 1
Total in-flight flits = 32 (32 measured)
latency change    = 0.135999
throughput change = 0.0254453
Class 0:
Packet latency average = 76.4003
	minimum = 7
	maximum = 1029
Network latency average = 39.0719
	minimum = 7
	maximum = 314
Slowest packet = 28508
Flit latency average = 43.9223
	minimum = 7
	maximum = 337
Slowest flit = 28266
Fragmentation average = 0
	minimum = 0
	maximum = 0
Injected packet rate average = 0.048
	minimum = 0.034 (at node 8)
	maximum = 0.062 (at node 4)
Accepted packet rate average = 0.04825
	minimum = 0.035 (at node 2)
	maximum = 0.064 (at node 1)
Injected flit rate average = 0.048
	minimum = 0.034 (at node 8)
	maximum = 0.062 (at node 4)
Accepted flit rate average= 0.04825
	minimum = 0.035 (at node 2)
	maximum = 0.064 (at node 1)
Injected packet length average = 1
Accepted packet length average = 1
Total in-flight flits = 30 (30 measured)
latency change    = 0.331695
throughput change = 0.0181347
Class 0:
Packet latency average = 84.3919
	minimum = 7
	maximum = 1163
Network latency average = 40.1605
	minimum = 7
	maximum = 314
Slowest packet = 28508
Flit latency average = 43.3835
	minimum = 7
	maximum = 337
Slowest flit = 28266
Fragmentation average = 0
	minimum = 0
	maximum = 0
Injected packet rate average = 0.04825
	minimum = 0.036 (at node 3)
	maximum = 0.0613333 (at node 4)
Accepted packet rate average = 0.0479167
	minimum = 0.0353333 (at node 12)
	maximum = 0.0613333 (at node 1)
Injected flit rate average = 0.04825
	minimum = 0.036 (at node 3)
	maximum = 0.0613333 (at node 4)
Accepted flit rate average= 0.0479167
	minimum = 0.0353333 (at node 12)
	maximum = 0.0613333 (at node 1)
Injected packet length average = 1
Accepted packet length average = 1
Total in-flight flits = 43 (43 measured)
latency change    = 0.0946969
throughput change = 0.00695652
Class 0:
Packet latency average = 89.4015
	minimum = 7
	maximum = 1387
Network latency average = 41.99
	minimum = 7
	maximum = 430
Slowest packet = 28508
Flit latency average = 44.3598
	minimum = 7
	maximum = 430
Slowest flit = 29618
Fragmentation average = 0
	minimum = 0
	maximum = 0
Injected packet rate average = 0.04825
	minimum = 0.0335 (at node 3)
	maximum = 0.06 (at node 4)
Accepted packet rate average = 0.0480312
	minimum = 0.0335 (at node 12)
	maximum = 0.061 (at node 1)
Injected flit rate average = 0.04825
	minimum = 0.0335 (at node 3)
	maximum = 0.06 (at node 4)
Accepted flit rate average= 0.0480312
	minimum = 0.0335 (at node 12)
	maximum = 0.061 (at node 1)
Injected packet length average = 1
Accepted packet length average = 1
Total in-flight flits = 42 (42 measured)
latency change    = 0.0560342
throughput change = 0.0023856
Class 0:
Packet latency average = 91.8599
	minimum = 7
	maximum = 1632
Network latency average = 42.9941
	minimum = 7
	maximum = 430
Slowest packet = 28508
Flit latency average = 44.8877
	minimum = 7
	maximum = 430
Slowest flit = 29618
Fragmentation average = 0
	minimum = 0
	maximum = 0
Injected packet rate average = 0.04805
	minimum = 0.0328 (at node 3)
	maximum = 0.06 (at node 15)
Accepted packet rate average = 0.047625
	minimum = 0.032 (at node 12)
	maximum = 0.0592 (at node 15)
Injected flit rate average = 0.04805
	minimum = 0.0328 (at node 3)
	maximum = 0.06 (at node 15)
Accepted flit rate average= 0.047625
	minimum = 0.032 (at node 12)
	maximum = 0.0592 (at node 15)
Injected packet length average = 1
Accepted packet length average = 1
Total in-flight flits = 51 (51 measured)
latency change    = 0.0267628
throughput change = 0.00853018
Class 0:
Packet latency average = 98.0313
	minimum = 7
	maximum = 1818
Network latency average = 43.4671
	minimum = 7
	maximum = 430
Slowest packet = 28508
Flit latency average = 45.0475
	minimum = 7
	maximum = 430
Slowest flit = 29618
Fragmentation average = 0
	minimum = 0
	maximum = 0
Injected packet rate average = 0.0473542
	minimum = 0.0326667 (at node 3)
	maximum = 0.0573333 (at node 15)
Accepted packet rate average = 0.0473333
	minimum = 0.0326667 (at node 12)
	maximum = 0.0573333 (at node 15)
Injected flit rate average = 0.0473542
	minimum = 0.0326667 (at node 3)
	maximum = 0.0573333 (at node 15)
Accepted flit rate average= 0.0473333
	minimum = 0.0326667 (at node 12)
	maximum = 0.0573333 (at node 15)
Injected packet length average = 1
Accepted packet length average = 1
Total in-flight flits = 35 (35 measured)
latency change    = 0.0629534
throughput change = 0.00616197
Class 0:
Packet latency average = 102.499
	minimum = 7
	maximum = 1912
Network latency average = 43.08
	minimum = 7
	maximum = 430
Slowest packet = 28508
Flit latency average = 44.4484
	minimum = 7
	maximum = 430
Slowest flit = 29618
Fragmentation average = 0
	minimum = 0
	maximum = 0
Injected packet rate average = 0.0469107
	minimum = 0.0337143 (at node 3)
	maximum = 0.0562857 (at node 15)
Accepted packet rate average = 0.0470357
	minimum = 0.0334286 (at node 12)
	maximum = 0.0562857 (at node 15)
Injected flit rate average = 0.0469107
	minimum = 0.0337143 (at node 3)
	maximum = 0.0562857 (at node 15)
Accepted flit rate average= 0.0470357
	minimum = 0.0334286 (at node 12)
	maximum = 0.0562857 (at node 15)
Injected packet length average = 1
Accepted packet length average = 1
Total in-flight flits = 26 (26 measured)
latency change    = 0.0435882
throughput change = 0.00632751
Draining all recorded packets ...
Class 0:
Remaining flits: 31619 31635 31710 31731 31735 31757 31781 31791 31806 31830 [...] (40 flits)
Measured flits: 31619 31635 31710 31731 31791 31842 31873 (7 flits)
Class 0:
Remaining flits: 32342 32458 32467 32470 32491 32517 32566 32567 32615 32616 [...] (34 flits)
Measured flits: 32342 32458 32467 32491 32567 32630 32641 32669 32680 (9 flits)
Class 0:
Remaining flits: 33187 33262 33272 33282 33290 33294 33301 33312 33335 33337 [...] (37 flits)
Measured flits: 33187 33262 33272 33282 33290 33391 33418 33433 33457 (9 flits)
Draining remaining packets ...
Time taken is 8570 cycles
Class 0:
Packet latency average = 31.7492
	minimum = 7
	maximum = 235
Network latency average = 31.7492
	minimum = 7
	maximum = 235
Slowest packet = 33897
Flit latency average = 31.7492
	minimum = 7
	maximum = 235
Slowest flit = 33897
Fragmentation average = 0
	minimum = 0
	maximum = 0
Injected packet rate average = 0.045375
	minimum = 0.03 (at node 1)
	maximum = 0.058 (at node 7)
Accepted packet rate average = 0.040875
	minimum = 0.028 (at node 4)
	maximum = 0.05 (at node 11)
Injected flit rate average = 0.045375
	minimum = 0.03 (at node 1)
	maximum = 0.058 (at node 7)
Accepted flit rate average= 0.040875
	minimum = 0.028 (at node 4)
	maximum = 0.05 (at node 11)
Injected packet length average = 1
Accepted packet length average = 1
Total in-flight flits = 37 (0 measured)
latency change    = 1
throughput change = 1
Class 0:
Packet latency average = 40.2115
	minimum = 7
	maximum = 443
Network latency average = 38.7689
	minimum = 7
	maximum = 327
Slowest packet = 33930
Flit latency average = 38.7689
	minimum = 7
	maximum = 327
Slowest flit = 34235
Fragmentation average = 0
	minimum = 0
	maximum = 0
Injected packet rate average = 0.0471875
	minimum = 0.038 (at node 3)
	maximum = 0.059 (at node 7)
Accepted packet rate average = 0.044625
	minimum = 0.031 (at node 12)
	maximum = 0.058 (at node 13)
Injected flit rate average = 0.0471875
	minimum = 0.038 (at node 3)
	maximum = 0.059 (at node 7)
Accepted flit rate average= 0.044625
	minimum = 0.031 (at node 12)
	maximum = 0.058 (at node 13)
Injected packet length average = 1
Accepted packet length average = 1
Total in-flight flits = 43 (0 measured)
latency change    = 0.210444
throughput change = 0.0840336
Class 0:
Packet latency average = 59.6489
	minimum = 7
	maximum = 719
Network latency average = 46.3341
	minimum = 7
	maximum = 438
Slowest packet = 34239
Flit latency average = 46.3341
	minimum = 7
	maximum = 438
Slowest flit = 34259
Fragmentation average = 0
	minimum = 0
	maximum = 0
Injected packet rate average = 0.051375
	minimum = 0.03 (at node 3)
	maximum = 0.068 (at node 11)
Accepted packet rate average = 0.051625
	minimum = 0.03 (at node 12)
	maximum = 0.068 (at node 3)
Injected flit rate average = 0.051375
	minimum = 0.03 (at node 3)
	maximum = 0.068 (at node 11)
Accepted flit rate average= 0.051625
	minimum = 0.03 (at node 12)
	maximum = 0.068 (at node 3)
Injected packet length average = 1
Accepted packet length average = 1
Total in-flight flits = 40 (0 measured)
latency change    = 0.325864
throughput change = 0.135593
Warmed up ...Time used is 1500 cycles
Class 0:
Packet latency average = 57.4579
	minimum = 7
	maximum = 924
Network latency average = 35.632
	minimum = 7
	maximum = 269
Slowest packet = 34932
Flit latency average = 43.9672
	minimum = 7
	maximum = 331
Slowest flit = 34708
Fragmentation average = 0
	minimum = 0
	maximum = 0
Injected packet rate average = 0.049
	minimum = 0.038 (at node 3)
	maximum = 0.064 (at node 11)
Accepted packet rate average = 0.0495
	minimum = 0.036 (at node 12)
	maximum = 0.064 (at node 14)
Injected flit rate average = 0.049
	minimum = 0.038 (at node 3)
	maximum = 0.064 (at node 11)
Accepted flit rate average= 0.0495
	minimum = 0.036 (at node 12)
	maximum = 0.064 (at node 14)
Injected packet length average = 1
Accepted packet length average = 1
Total in-flight flits = 37 (37 measured)
latency change    = 0.0381331
throughput change = 0.0429293
Class 0:
Packet latency average = 71.9596
	minimum = 7
	maximum = 1097
Network latency average = 40.3113
	minimum = 7
	maximum = 305
Slowest packet = 34932
Flit latency average = 44.2928
	minimum = 7
	maximum = 331
Slowest flit = 34708
Fragmentation average = 0
	minimum = 0
	maximum = 0
Injected packet rate average = 0.0488125
	minimum = 0.037 (at node 3)
	maximum = 0.063 (at node 11)
Accepted packet rate average = 0.048875
	minimum = 0.035 (at node 12)
	maximum = 0.063 (at node 14)
Injected flit rate average = 0.0488125
	minimum = 0.037 (at node 3)
	maximum = 0.063 (at node 11)
Accepted flit rate average= 0.048875
	minimum = 0.035 (at node 12)
	maximum = 0.063 (at node 14)
Injected packet length average = 1
Accepted packet length average = 1
Total in-flight flits = 40 (40 measured)
latency change    = 0.201526
throughput change = 0.0127877
Class 0:
Packet latency average = 83.3013
	minimum = 7
	maximum = 1291
Network latency average = 42.0699
	minimum = 7
	maximum = 425
Slowest packet = 34932
Flit latency average = 44.638
	minimum = 7
	maximum = 425
Slowest flit = 35413
Fragmentation average = 0
	minimum = 0
	maximum = 0
Injected packet rate average = 0.04925
	minimum = 0.034 (at node 3)
	maximum = 0.0586667 (at node 5)
Accepted packet rate average = 0.049375
	minimum = 0.034 (at node 12)
	maximum = 0.058 (at node 5)
Injected flit rate average = 0.04925
	minimum = 0.034 (at node 3)
	maximum = 0.0586667 (at node 5)
Accepted flit rate average= 0.049375
	minimum = 0.034 (at node 12)
	maximum = 0.058 (at node 5)
Injected packet length average = 1
Accepted packet length average = 1
Total in-flight flits = 39 (39 measured)
latency change    = 0.136153
throughput change = 0.0101266
Class 0:
Packet latency average = 89.9175
	minimum = 7
	maximum = 1548
Network latency average = 43.6918
	minimum = 7
	maximum = 425
Slowest packet = 34932
Flit latency average = 45.5912
	minimum = 7
	maximum = 425
Slowest flit = 35413
Fragmentation average = 0
	minimum = 0
	maximum = 0
Injected packet rate average = 0.0490937
	minimum = 0.0325 (at node 3)
	maximum = 0.055 (at node 11)
Accepted packet rate average = 0.049
	minimum = 0.032 (at node 12)
	maximum = 0.055 (at node 2)
Injected flit rate average = 0.0490937
	minimum = 0.0325 (at node 3)
	maximum = 0.055 (at node 11)
Accepted flit rate average= 0.049
	minimum = 0.032 (at node 12)
	maximum = 0.055 (at node 2)
Injected packet length average = 1
Accepted packet length average = 1
Total in-flight flits = 45 (45 measured)
latency change    = 0.0735811
throughput change = 0.00765306
Class 0:
Packet latency average = 97.0896
	minimum = 7
	maximum = 1817
Network latency average = 44.5933
	minimum = 7
	maximum = 436
Slowest packet = 34932
Flit latency average = 46.1037
	minimum = 7
	maximum = 436
Slowest flit = 36421
Fragmentation average = 0
	minimum = 0
	maximum = 0
Injected packet rate average = 0.048975
	minimum = 0.0304 (at node 3)
	maximum = 0.0588 (at node 12)
Accepted packet rate average = 0.0487
	minimum = 0.0308 (at node 12)
	maximum = 0.058 (at node 3)
Injected flit rate average = 0.048975
	minimum = 0.0304 (at node 3)
	maximum = 0.0588 (at node 12)
Accepted flit rate average= 0.0487
	minimum = 0.0308 (at node 12)
	maximum = 0.058 (at node 3)
Injected packet length average = 1
Accepted packet length average = 1
Total in-flight flits = 54 (54 measured)
latency change    = 0.0738708
throughput change = 0.00616016
Class 0:
Packet latency average = 103.633
	minimum = 7
	maximum = 1981
Network latency average = 45.4781
	minimum = 7
	maximum = 436
Slowest packet = 34932
Flit latency average = 46.7187
	minimum = 7
	maximum = 436
Slowest flit = 36421
Fragmentation average = 0
	minimum = 0
	maximum = 0
Injected packet rate average = 0.04875
	minimum = 0.03 (at node 3)
	maximum = 0.0586667 (at node 12)
Accepted packet rate average = 0.0488125
	minimum = 0.0293333 (at node 12)
	maximum = 0.058 (at node 3)
Injected flit rate average = 0.04875
	minimum = 0.03 (at node 3)
	maximum = 0.0586667 (at node 12)
Accepted flit rate average= 0.0488125
	minimum = 0.0293333 (at node 12)
	maximum = 0.058 (at node 3)
Injected packet length average = 1
Accepted packet length average = 1
Total in-flight flits = 40 (40 measured)
latency change    = 0.0631407
throughput change = 0.00230474
Class 0:
Packet latency average = 112.229
	minimum = 7
	maximum = 2313
Network latency average = 45.7979
	minimum = 7
	maximum = 478
Slowest packet = 34932
Flit latency average = 46.8537
	minimum = 7
	maximum = 478
Slowest flit = 37269
Fragmentation average = 0
	minimum = 0
	maximum = 0
Injected packet rate average = 0.0489286
	minimum = 0.0285714 (at node 3)
	maximum = 0.0565714 (at node 12)
Accepted packet rate average = 0.0489464
	minimum = 0.0288571 (at node 12)
	maximum = 0.0571429 (at node 3)
Injected flit rate average = 0.0489286
	minimum = 0.0285714 (at node 3)
	maximum = 0.0565714 (at node 12)
Accepted flit rate average= 0.0489464
	minimum = 0.0288571 (at node 12)
	maximum = 0.0571429 (at node 3)
Injected packet length average = 1
Accepted packet length average = 1
Total in-flight flits = 41 (41 measured)
latency change    = 0.0765941
throughput change = 0.00273623
Draining all recorded packets ...
Class 0:
Remaining flits: 38089 38145 38239 38305 38326 38332 38337 38362 38365 38379 [...] (32 flits)
Measured flits: 38089 38145 38239 38305 38326 38337 38415 38420 38453 (9 flits)
Class 0:
Remaining flits: 38931 39003 39079 39098 39119 39139 39145 39147 39159 39162 [...] (38 flits)
Measured flits: 38931 39003 39079 39098 39139 39159 39186 39223 39236 (9 flits)
Class 0:
Remaining flits: 39743 39819 39872 39879 39897 39917 39926 39937 39944 39947 [...] (52 flits)
Measured flits: 39743 39819 39872 39937 39947 39969 39981 40015 (8 flits)
Class 0:
Remaining flits: 40495 40528 40609 40616 40630 40641 40648 40668 40681 40682 [...] (41 flits)
Measured flits: 40495 40528 40609 40630 40682 40719 40722 40729 (8 flits)
Class 0:
Remaining flits: 41312 41353 41361 41372 41399 41412 41419 41444 41449 41450 [...] (34 flits)
Measured flits: 41312 41353 (2 flits)
Draining remaining packets ...
Time taken is 10223 cycles
Class 0:
Packet latency average = 31.6417
	minimum = 7
	maximum = 199
Network latency average = 31.5989
	minimum = 7
	maximum = 199
Slowest packet = 41829
Flit latency average = 31.5989
	minimum = 7
	maximum = 199
Slowest flit = 41829
Fragmentation average = 0
	minimum = 0
	maximum = 0
Injected packet rate average = 0.05175
	minimum = 0.036 (at node 15)
	maximum = 0.064 (at node 9)
Accepted packet rate average = 0.04675
	minimum = 0.028 (at node 12)
	maximum = 0.06 (at node 6)
Injected flit rate average = 0.05175
	minimum = 0.036 (at node 15)
	maximum = 0.064 (at node 9)
Accepted flit rate average= 0.04675
	minimum = 0.028 (at node 12)
	maximum = 0.06 (at node 6)
Injected packet length average = 1
Accepted packet length average = 1
Total in-flight flits = 42 (0 measured)
latency change    = 1
throughput change = 1
Class 0:
Packet latency average = 39.2453
	minimum = 7
	maximum = 420
Network latency average = 38.14
	minimum = 7
	maximum = 350
Slowest packet = 42028
Flit latency average = 38.14
	minimum = 7
	maximum = 350
Slowest flit = 42040
Fragmentation average = 0
	minimum = 0
	maximum = 0
Injected packet rate average = 0.0483125
	minimum = 0.038 (at node 3)
	maximum = 0.063 (at node 12)
Accepted packet rate average = 0.046875
	minimum = 0.031 (at node 12)
	maximum = 0.06 (at node 3)
Injected flit rate average = 0.0483125
	minimum = 0.038 (at node 3)
	maximum = 0.063 (at node 12)
Accepted flit rate average= 0.046875
	minimum = 0.031 (at node 12)
	maximum = 0.06 (at node 3)
Injected packet length average = 1
Accepted packet length average = 1
Total in-flight flits = 24 (0 measured)
latency change    = 0.193746
throughput change = 0.00266667
Class 0:
Packet latency average = 49.862
	minimum = 7
	maximum = 661
Network latency average = 41.6849
	minimum = 7
	maximum = 381
Slowest packet = 42164
Flit latency average = 41.6849
	minimum = 7
	maximum = 381
Slowest flit = 42418
Fragmentation average = 0
	minimum = 0
	maximum = 0
Injected packet rate average = 0.048625
	minimum = 0.024 (at node 3)
	maximum = 0.07 (at node 1)
Accepted packet rate average = 0.048
	minimum = 0.024 (at node 12)
	maximum = 0.074 (at node 4)
Injected flit rate average = 0.048625
	minimum = 0.024 (at node 3)
	maximum = 0.07 (at node 1)
Accepted flit rate average= 0.048
	minimum = 0.024 (at node 12)
	maximum = 0.074 (at node 4)
Injected packet length average = 1
Accepted packet length average = 1
Total in-flight flits = 29 (0 measured)
latency change    = 0.212921
throughput change = 0.0234375
Warmed up ...Time used is 1500 cycles
Class 0:
Packet latency average = 47.1047
	minimum = 7
	maximum = 628
Network latency average = 34.7151
	minimum = 7
	maximum = 323
Slowest packet = 42794
Flit latency average = 41.1314
	minimum = 7
	maximum = 416
Slowest flit = 42516
Fragmentation average = 0
	minimum = 0
	maximum = 0
Injected packet rate average = 0.047875
	minimum = 0.034 (at node 0)
	maximum = 0.076 (at node 11)
Accepted packet rate average = 0.046625
	minimum = 0.034 (at node 0)
	maximum = 0.072 (at node 14)
Injected flit rate average = 0.047875
	minimum = 0.034 (at node 0)
	maximum = 0.076 (at node 11)
Accepted flit rate average= 0.046625
	minimum = 0.034 (at node 0)
	maximum = 0.072 (at node 14)
Injected packet length average = 1
Accepted packet length average = 1
Total in-flight flits = 39 (39 measured)
latency change    = 0.0585362
throughput change = 0.0294906
Class 0:
Packet latency average = 52.5395
	minimum = 7
	maximum = 796
Network latency average = 38.4993
	minimum = 7
	maximum = 414
Slowest packet = 42794
Flit latency average = 41.544
	minimum = 7
	maximum = 416
Slowest flit = 42516
Fragmentation average = 0
	minimum = 0
	maximum = 0
Injected packet rate average = 0.0475625
	minimum = 0.036 (at node 3)
	maximum = 0.063 (at node 11)
Accepted packet rate average = 0.046875
	minimum = 0.033 (at node 12)
	maximum = 0.063 (at node 14)
Injected flit rate average = 0.0475625
	minimum = 0.036 (at node 3)
	maximum = 0.063 (at node 11)
Accepted flit rate average= 0.046875
	minimum = 0.033 (at node 12)
	maximum = 0.063 (at node 14)
Injected packet length average = 1
Accepted packet length average = 1
Total in-flight flits = 41 (41 measured)
latency change    = 0.103444
throughput change = 0.00533333
Class 0:
Packet latency average = 60.6822
	minimum = 7
	maximum = 1033
Network latency average = 40.5058
	minimum = 7
	maximum = 414
Slowest packet = 42794
Flit latency average = 42.4476
	minimum = 7
	maximum = 416
Slowest flit = 42516
Fragmentation average = 0
	minimum = 0
	maximum = 0
Injected packet rate average = 0.0479583
	minimum = 0.0333333 (at node 3)
	maximum = 0.0586667 (at node 11)
Accepted packet rate average = 0.04775
	minimum = 0.0333333 (at node 12)
	maximum = 0.0593333 (at node 14)
Injected flit rate average = 0.0479583
	minimum = 0.0333333 (at node 3)
	maximum = 0.0586667 (at node 11)
Accepted flit rate average= 0.04775
	minimum = 0.0333333 (at node 12)
	maximum = 0.0593333 (at node 14)
Injected packet length average = 1
Accepted packet length average = 1
Total in-flight flits = 36 (36 measured)
latency change    = 0.134185
throughput change = 0.0183246
Class 0:
Packet latency average = 68.1807
	minimum = 7
	maximum = 1252
Network latency average = 42.41
	minimum = 7
	maximum = 426
Slowest packet = 42794
Flit latency average = 43.8293
	minimum = 7
	maximum = 426
Slowest flit = 43581
Fragmentation average = 0
	minimum = 0
	maximum = 0
Injected packet rate average = 0.0478437
	minimum = 0.0325 (at node 3)
	maximum = 0.0615 (at node 11)
Accepted packet rate average = 0.0477812
	minimum = 0.032 (at node 12)
	maximum = 0.062 (at node 14)
Injected flit rate average = 0.0478437
	minimum = 0.0325 (at node 3)
	maximum = 0.0615 (at node 11)
Accepted flit rate average= 0.0477812
	minimum = 0.032 (at node 12)
	maximum = 0.062 (at node 14)
Injected packet length average = 1
Accepted packet length average = 1
Total in-flight flits = 32 (32 measured)
latency change    = 0.10998
throughput change = 0.000654022
Class 0:
Packet latency average = 76.2157
	minimum = 7
	maximum = 1434
Network latency average = 43.131
	minimum = 7
	maximum = 426
Slowest packet = 42794
Flit latency average = 44.258
	minimum = 7
	maximum = 426
Slowest flit = 43581
Fragmentation average = 0
	minimum = 0
	maximum = 0
Injected packet rate average = 0.04765
	minimum = 0.034 (at node 3)
	maximum = 0.0572 (at node 11)
Accepted packet rate average = 0.047675
	minimum = 0.0332 (at node 12)
	maximum = 0.0568 (at node 14)
Injected flit rate average = 0.04765
	minimum = 0.034 (at node 3)
	maximum = 0.0572 (at node 11)
Accepted flit rate average= 0.047675
	minimum = 0.0332 (at node 12)
	maximum = 0.0568 (at node 14)
Injected packet length average = 1
Accepted packet length average = 1
Total in-flight flits = 29 (29 measured)
latency change    = 0.105424
throughput change = 0.00222863
Class 0:
Packet latency average = 84.2696
	minimum = 7
	maximum = 1552
Network latency average = 43.4551
	minimum = 7
	maximum = 426
Slowest packet = 42794
Flit latency average = 44.3799
	minimum = 7
	maximum = 426
Slowest flit = 43581
Fragmentation average = 0
	minimum = 0
	maximum = 0
Injected packet rate average = 0.0484583
	minimum = 0.0356667 (at node 3)
	maximum = 0.057 (at node 8)
Accepted packet rate average = 0.0482083
	minimum = 0.036 (at node 12)
	maximum = 0.0563333 (at node 2)
Injected flit rate average = 0.0484583
	minimum = 0.0356667 (at node 3)
	maximum = 0.057 (at node 8)
Accepted flit rate average= 0.0482083
	minimum = 0.036 (at node 12)
	maximum = 0.0563333 (at node 2)
Injected packet length average = 1
Accepted packet length average = 1
Total in-flight flits = 43 (43 measured)
latency change    = 0.0955734
throughput change = 0.0110631
Class 0:
Packet latency average = 86.1368
	minimum = 7
	maximum = 1559
Network latency average = 43.8509
	minimum = 7
	maximum = 426
Slowest packet = 42794
Flit latency average = 44.6397
	minimum = 7
	maximum = 426
Slowest flit = 43581
Fragmentation average = 0
	minimum = 0
	maximum = 0
Injected packet rate average = 0.0482857
	minimum = 0.0362857 (at node 3)
	maximum = 0.0551429 (at node 11)
Accepted packet rate average = 0.0481786
	minimum = 0.0351429 (at node 12)
	maximum = 0.0554286 (at node 14)
Injected flit rate average = 0.0482857
	minimum = 0.0362857 (at node 3)
	maximum = 0.0551429 (at node 11)
Accepted flit rate average= 0.0481786
	minimum = 0.0351429 (at node 12)
	maximum = 0.0554286 (at node 14)
Injected packet length average = 1
Accepted packet length average = 1
Total in-flight flits = 36 (36 measured)
latency change    = 0.0216768
throughput change = 0.000617742
Draining all recorded packets ...
Class 0:
Remaining flits: 45991 46065 46069 46072 46099 46129 46135 46147 46151 46163 [...] (35 flits)
Measured flits: 45991 46065 46072 46129 46151 46163 46182 46236 (8 flits)
Class 0:
Remaining flits: 46814 46827 46844 46892 46940 46953 46971 46979 46988 46998 [...] (45 flits)
Measured flits: 46814 46827 46844 46971 46979 46988 46998 47083 (8 flits)
Draining remaining packets ...
Time taken is 8010 cycles
Class 0:
Packet latency average = 31.8883
	minimum = 7
	maximum = 188
Network latency average = 31.6173
	minimum = 7
	maximum = 159
Slowest packet = 47915
Flit latency average = 31.6173
	minimum = 7
	maximum = 159
Slowest flit = 47960
Fragmentation average = 0
	minimum = 0
	maximum = 0
Injected packet rate average = 0.048125
	minimum = 0.036 (at node 15)
	maximum = 0.066 (at node 5)
Accepted packet rate average = 0.04475
	minimum = 0.026 (at node 12)
	maximum = 0.066 (at node 5)
Injected flit rate average = 0.048125
	minimum = 0.036 (at node 15)
	maximum = 0.066 (at node 5)
Accepted flit rate average= 0.04475
	minimum = 0.026 (at node 12)
	maximum = 0.066 (at node 5)
Injected packet length average = 1
Accepted packet length average = 1
Total in-flight flits = 27 (0 measured)
latency change    = 1
throughput change = 1
Class 0:
Packet latency average = 34.6355
	minimum = 7
	maximum = 299
Network latency average = 33.5571
	minimum = 7
	maximum = 240
Slowest packet = 48056
Flit latency average = 33.5571
	minimum = 7
	maximum = 240
Slowest flit = 48056
Fragmentation average = 0
	minimum = 0
	maximum = 0
Injected packet rate average = 0.0474375
	minimum = 0.039 (at node 12)
	maximum = 0.061 (at node 5)
Accepted packet rate average = 0.0454375
	minimum = 0.035 (at node 12)
	maximum = 0.06 (at node 5)
Injected flit rate average = 0.0474375
	minimum = 0.039 (at node 12)
	maximum = 0.061 (at node 5)
Accepted flit rate average= 0.0454375
	minimum = 0.035 (at node 12)
	maximum = 0.06 (at node 5)
Injected packet length average = 1
Accepted packet length average = 1
Total in-flight flits = 33 (0 measured)
latency change    = 0.0793181
throughput change = 0.0151307
Class 0:
Packet latency average = 45.1211
	minimum = 7
	maximum = 498
Network latency average = 41.3729
	minimum = 7
	maximum = 353
Slowest packet = 48352
Flit latency average = 41.3729
	minimum = 7
	maximum = 353
Slowest flit = 48534
Fragmentation average = 0
	minimum = 0
	maximum = 0
Injected packet rate average = 0.05375
	minimum = 0.028 (at node 3)
	maximum = 0.072 (at node 9)
Accepted packet rate average = 0.052625
	minimum = 0.028 (at node 12)
	maximum = 0.07 (at node 4)
Injected flit rate average = 0.05375
	minimum = 0.028 (at node 3)
	maximum = 0.072 (at node 9)
Accepted flit rate average= 0.052625
	minimum = 0.028 (at node 12)
	maximum = 0.07 (at node 4)
Injected packet length average = 1
Accepted packet length average = 1
Total in-flight flits = 43 (0 measured)
latency change    = 0.232389
throughput change = 0.13658
Warmed up ...Time used is 1500 cycles
Class 0:
Packet latency average = 45.0876
	minimum = 7
	maximum = 714
Network latency average = 36.9396
	minimum = 7
	maximum = 347
Slowest packet = 48983
Flit latency average = 47.8262
	minimum = 7
	maximum = 380
Slowest flit = 48640
Fragmentation average = 0
	minimum = 0
	maximum = 0
Injected packet rate average = 0.047
	minimum = 0.024 (at node 3)
	maximum = 0.066 (at node 10)
Accepted packet rate average = 0.04675
	minimum = 0.026 (at node 12)
	maximum = 0.064 (at node 10)
Injected flit rate average = 0.047
	minimum = 0.024 (at node 3)
	maximum = 0.066 (at node 10)
Accepted flit rate average= 0.04675
	minimum = 0.026 (at node 12)
	maximum = 0.064 (at node 10)
Injected packet length average = 1
Accepted packet length average = 1
Total in-flight flits = 45 (45 measured)
latency change    = 0.000743593
throughput change = 0.125668
Class 0:
Packet latency average = 61.8095
	minimum = 7
	maximum = 943
Network latency average = 42.8907
	minimum = 7
	maximum = 413
Slowest packet = 48983
Flit latency average = 48.1903
	minimum = 7
	maximum = 413
Slowest flit = 49093
Fragmentation average = 0
	minimum = 0
	maximum = 0
Injected packet rate average = 0.04475
	minimum = 0.024 (at node 3)
	maximum = 0.059 (at node 15)
Accepted packet rate average = 0.045
	minimum = 0.026 (at node 12)
	maximum = 0.058 (at node 15)
Injected flit rate average = 0.04475
	minimum = 0.024 (at node 3)
	maximum = 0.059 (at node 15)
Accepted flit rate average= 0.045
	minimum = 0.026 (at node 12)
	maximum = 0.058 (at node 15)
Injected packet length average = 1
Accepted packet length average = 1
Total in-flight flits = 39 (39 measured)
latency change    = 0.270539
throughput change = 0.0388889
Class 0:
Packet latency average = 65.0139
	minimum = 7
	maximum = 1235
Network latency average = 41.6177
	minimum = 7
	maximum = 413
Slowest packet = 48983
Flit latency average = 45.0551
	minimum = 7
	maximum = 413
Slowest flit = 49093
Fragmentation average = 0
	minimum = 0
	maximum = 0
Injected packet rate average = 0.04675
	minimum = 0.0253333 (at node 3)
	maximum = 0.0606667 (at node 15)
Accepted packet rate average = 0.0469167
	minimum = 0.0253333 (at node 12)
	maximum = 0.0606667 (at node 15)
Injected flit rate average = 0.04675
	minimum = 0.0253333 (at node 3)
	maximum = 0.0606667 (at node 15)
Accepted flit rate average= 0.0469167
	minimum = 0.0253333 (at node 12)
	maximum = 0.0606667 (at node 15)
Injected packet length average = 1
Accepted packet length average = 1
Total in-flight flits = 39 (39 measured)
latency change    = 0.0492879
throughput change = 0.0408526
Class 0:
Packet latency average = 72.176
	minimum = 7
	maximum = 1404
Network latency average = 41.9246
	minimum = 7
	maximum = 413
Slowest packet = 48983
Flit latency average = 44.5397
	minimum = 7
	maximum = 413
Slowest flit = 49093
Fragmentation average = 0
	minimum = 0
	maximum = 0
Injected packet rate average = 0.0459063
	minimum = 0.026 (at node 3)
	maximum = 0.0585 (at node 15)
Accepted packet rate average = 0.0460938
	minimum = 0.0265 (at node 12)
	maximum = 0.059 (at node 15)
Injected flit rate average = 0.0459063
	minimum = 0.026 (at node 3)
	maximum = 0.0585 (at node 15)
Accepted flit rate average= 0.0460938
	minimum = 0.0265 (at node 12)
	maximum = 0.059 (at node 15)
Injected packet length average = 1
Accepted packet length average = 1
Total in-flight flits = 36 (36 measured)
latency change    = 0.0992315
throughput change = 0.0178531
Class 0:
Packet latency average = 75.3322
	minimum = 7
	maximum = 1566
Network latency average = 41.5237
	minimum = 7
	maximum = 413
Slowest packet = 48983
Flit latency average = 43.6124
	minimum = 7
	maximum = 413
Slowest flit = 49093
Fragmentation average = 0
	minimum = 0
	maximum = 0
Injected packet rate average = 0.0462
	minimum = 0.0256 (at node 3)
	maximum = 0.0576 (at node 15)
Accepted packet rate average = 0.046375
	minimum = 0.0268 (at node 12)
	maximum = 0.0576 (at node 15)
Injected flit rate average = 0.0462
	minimum = 0.0256 (at node 3)
	maximum = 0.0576 (at node 15)
Accepted flit rate average= 0.046375
	minimum = 0.0268 (at node 12)
	maximum = 0.0576 (at node 15)
Injected packet length average = 1
Accepted packet length average = 1
Total in-flight flits = 37 (37 measured)
latency change    = 0.0418978
throughput change = 0.00606469
Class 0:
Packet latency average = 79.5726
	minimum = 7
	maximum = 1887
Network latency average = 42.7757
	minimum = 7
	maximum = 505
Slowest packet = 48983
Flit latency average = 44.4975
	minimum = 7
	maximum = 505
Slowest flit = 50699
Fragmentation average = 0
	minimum = 0
	maximum = 0
Injected packet rate average = 0.0460625
	minimum = 0.0256667 (at node 3)
	maximum = 0.0533333 (at node 15)
Accepted packet rate average = 0.0462292
	minimum = 0.026 (at node 12)
	maximum = 0.0536667 (at node 15)
Injected flit rate average = 0.0460625
	minimum = 0.0256667 (at node 3)
	maximum = 0.0533333 (at node 15)
Accepted flit rate average= 0.0462292
	minimum = 0.026 (at node 12)
	maximum = 0.0536667 (at node 15)
Injected packet length average = 1
Accepted packet length average = 1
Total in-flight flits = 37 (37 measured)
latency change    = 0.0532895
throughput change = 0.00315457
Class 0:
Packet latency average = 87.0078
	minimum = 7
	maximum = 2059
Network latency average = 43.7192
	minimum = 7
	maximum = 505
Slowest packet = 48983
Flit latency average = 45.167
	minimum = 7
	maximum = 505
Slowest flit = 50699
Fragmentation average = 0
	minimum = 0
	maximum = 0
Injected packet rate average = 0.0464107
	minimum = 0.0271429 (at node 3)
	maximum = 0.0531429 (at node 15)
Accepted packet rate average = 0.046625
	minimum = 0.0271429 (at node 12)
	maximum = 0.0534286 (at node 15)
Injected flit rate average = 0.0464107
	minimum = 0.0271429 (at node 3)
	maximum = 0.0531429 (at node 15)
Accepted flit rate average= 0.046625
	minimum = 0.0271429 (at node 12)
	maximum = 0.0534286 (at node 15)
Injected packet length average = 1
Accepted packet length average = 1
Total in-flight flits = 31 (31 measured)
latency change    = 0.0854542
throughput change = 0.00848972
Draining all recorded packets ...
Class 0:
Remaining flits: 52202 52239 52246 52249 52251 52254 52256 52263 52268 52278 [...] (30 flits)
Measured flits: 52202 52246 52249 52254 52263 52268 52278 52311 52321 52328 (10 flits)
Class 0:
Remaining flits: 52820 52866 52883 52938 52965 52976 52996 53008 53017 53030 [...] (35 flits)
Measured flits: 52820 52866 52883 52938 52965 52996 53043 53050 (8 flits)
Class 0:
Remaining flits: 53607 53651 53716 53723 53753 53757 53776 53786 53787 53789 [...] (37 flits)
Measured flits: 53607 53651 53723 53753 53787 53799 53825 53837 (8 flits)
Draining remaining packets ...
Time taken is 8898 cycles
Class 0:
Packet latency average = 26.0111
	minimum = 7
	maximum = 107
Network latency average = 26.0111
	minimum = 7
	maximum = 107
Slowest packet = 54552
Flit latency average = 26.0111
	minimum = 7
	maximum = 107
Slowest flit = 54552
Fragmentation average = 0
	minimum = 0
	maximum = 0
Injected packet rate average = 0.048875
	minimum = 0.034 (at node 8)
	maximum = 0.068 (at node 7)
Accepted packet rate average = 0.045125
	minimum = 0.03 (at node 2)
	maximum = 0.058 (at node 14)
Injected flit rate average = 0.048875
	minimum = 0.034 (at node 8)
	maximum = 0.068 (at node 7)
Accepted flit rate average= 0.045125
	minimum = 0.03 (at node 2)
	maximum = 0.058 (at node 14)
Injected packet length average = 1
Accepted packet length average = 1
Total in-flight flits = 30 (0 measured)
latency change    = 1
throughput change = 1
Class 0:
Packet latency average = 31.4946
	minimum = 7
	maximum = 259
Network latency average = 31.2425
	minimum = 7
	maximum = 259
Slowest packet = 54958
Flit latency average = 31.2425
	minimum = 7
	maximum = 259
Slowest flit = 54958
Fragmentation average = 0
	minimum = 0
	maximum = 0
Injected packet rate average = 0.04775
	minimum = 0.036 (at node 2)
	maximum = 0.057 (at node 7)
Accepted packet rate average = 0.046125
	minimum = 0.035 (at node 7)
	maximum = 0.057 (at node 13)
Injected flit rate average = 0.04775
	minimum = 0.036 (at node 2)
	maximum = 0.057 (at node 7)
Accepted flit rate average= 0.046125
	minimum = 0.035 (at node 7)
	maximum = 0.057 (at node 13)
Injected packet length average = 1
Accepted packet length average = 1
Total in-flight flits = 27 (0 measured)
latency change    = 0.174109
throughput change = 0.0216802
Class 0:
Packet latency average = 44.1332
	minimum = 7
	maximum = 344
Network latency average = 38.0302
	minimum = 7
	maximum = 344
Slowest packet = 55297
Flit latency average = 38.0302
	minimum = 7
	maximum = 344
Slowest flit = 55297
Fragmentation average = 0
	minimum = 0
	maximum = 0
Injected packet rate average = 0.051
	minimum = 0.03 (at node 3)
	maximum = 0.074 (at node 6)
Accepted packet rate average = 0.04975
	minimum = 0.028 (at node 12)
	maximum = 0.074 (at node 9)
Injected flit rate average = 0.051
	minimum = 0.03 (at node 3)
	maximum = 0.074 (at node 6)
Accepted flit rate average= 0.04975
	minimum = 0.028 (at node 12)
	maximum = 0.074 (at node 9)
Injected packet length average = 1
Accepted packet length average = 1
Total in-flight flits = 38 (0 measured)
latency change    = 0.286374
throughput change = 0.0728643
Warmed up ...Time used is 1500 cycles
Class 0:
Packet latency average = 47.6817
	minimum = 7
	maximum = 581
Network latency average = 39.2432
	minimum = 7
	maximum = 354
Slowest packet = 55583
Flit latency average = 48.0809
	minimum = 7
	maximum = 356
Slowest flit = 55428
Fragmentation average = 0
	minimum = 0
	maximum = 0
Injected packet rate average = 0.046
	minimum = 0.028 (at node 3)
	maximum = 0.06 (at node 5)
Accepted packet rate average = 0.046375
	minimum = 0.026 (at node 12)
	maximum = 0.062 (at node 3)
Injected flit rate average = 0.046
	minimum = 0.028 (at node 3)
	maximum = 0.06 (at node 5)
Accepted flit rate average= 0.046375
	minimum = 0.026 (at node 12)
	maximum = 0.062 (at node 3)
Injected packet length average = 1
Accepted packet length average = 1
Total in-flight flits = 35 (35 measured)
latency change    = 0.0744209
throughput change = 0.0727763
Class 0:
Packet latency average = 62.3595
	minimum = 7
	maximum = 854
Network latency average = 43.5179
	minimum = 7
	maximum = 383
Slowest packet = 55583
Flit latency average = 47.5969
	minimum = 7
	maximum = 383
Slowest flit = 55946
Fragmentation average = 0
	minimum = 0
	maximum = 0
Injected packet rate average = 0.047625
	minimum = 0.028 (at node 3)
	maximum = 0.062 (at node 12)
Accepted packet rate average = 0.04775
	minimum = 0.027 (at node 12)
	maximum = 0.064 (at node 3)
Injected flit rate average = 0.047625
	minimum = 0.028 (at node 3)
	maximum = 0.062 (at node 12)
Accepted flit rate average= 0.04775
	minimum = 0.027 (at node 12)
	maximum = 0.064 (at node 3)
Injected packet length average = 1
Accepted packet length average = 1
Total in-flight flits = 36 (36 measured)
latency change    = 0.235374
throughput change = 0.0287958
Class 0:
Packet latency average = 67.5114
	minimum = 7
	maximum = 957
Network latency average = 44.1898
	minimum = 7
	maximum = 383
Slowest packet = 55583
Flit latency average = 46.9034
	minimum = 7
	maximum = 383
Slowest flit = 55946
Fragmentation average = 0
	minimum = 0
	maximum = 0
Injected packet rate average = 0.0475833
	minimum = 0.0266667 (at node 3)
	maximum = 0.056 (at node 12)
Accepted packet rate average = 0.0474583
	minimum = 0.0273333 (at node 12)
	maximum = 0.0566667 (at node 3)
Injected flit rate average = 0.0475833
	minimum = 0.0266667 (at node 3)
	maximum = 0.056 (at node 12)
Accepted flit rate average= 0.0474583
	minimum = 0.0273333 (at node 12)
	maximum = 0.0566667 (at node 3)
Injected packet length average = 1
Accepted packet length average = 1
Total in-flight flits = 42 (42 measured)
latency change    = 0.0763109
throughput change = 0.00614574
Class 0:
Packet latency average = 69.4373
	minimum = 7
	maximum = 1250
Network latency average = 45.059
	minimum = 7
	maximum = 431
Slowest packet = 55583
Flit latency average = 47.0589
	minimum = 7
	maximum = 431
[...]
	minimum = 7
	maximum = 224
Network latency average = 31.1934
	minimum = 7
	maximum = 216
Slowest packet = 331183
Flit latency average = 31.1934
	minimum = 7
	maximum = 216
Slowest flit = 331183
Fragmentation average = 0
	minimum = 0
	maximum = 0
Injected packet rate average = 0.053
	minimum = 0.036 (at node 4)
	maximum = 0.078 (at node 10)
Accepted packet rate average = 0.049125
	minimum = 0.032 (at node 8)
	maximum = 0.078 (at node 10)
Injected flit rate average = 0.053
	minimum = 0.036 (at node 4)
	maximum = 0.078 (at node 10)
Accepted flit rate average= 0.049125
	minimum = 0.032 (at node 8)
	maximum = 0.078 (at node 10)
Injected packet length average = 1
Accepted packet length average = 1
Total in-flight flits = 32 (0 measured)
latency change    = 1
throughput change = 1
Class 0:
Packet latency average = 39.2523
	minimum = 7
	maximum = 368
Network latency average = 37.5964
	minimum = 7
	maximum = 368
Slowest packet = 331488
Flit latency average = 37.5964
	minimum = 7
	maximum = 368
Slowest flit = 331488
Fragmentation average = 0
	minimum = 0
	maximum = 0
Injected packet rate average = 0.05025
	minimum = 0.034 (at node 4)
	maximum = 0.063 (at node 10)
Accepted packet rate average = 0.0483125
	minimum = 0.032 (at node 12)
	maximum = 0.063 (at node 10)
Injected flit rate average = 0.05025
	minimum = 0.034 (at node 4)
	maximum = 0.063 (at node 10)
Accepted flit rate average= 0.0483125
	minimum = 0.032 (at node 12)
	maximum = 0.063 (at node 10)
Injected packet length average = 1
Accepted packet length average = 1
Total in-flight flits = 34 (0 measured)
latency change    = 0.195392
throughput change = 0.0168176
Class 0:
Packet latency average = 58.206
	minimum = 7
	maximum = 530
Network latency average = 45.5955
	minimum = 7
	maximum = 375
Slowest packet = 331539
Flit latency average = 45.5955
	minimum = 7
	maximum = 375
Slowest flit = 331782
Fragmentation average = 0
	minimum = 0
	maximum = 0
Injected packet rate average = 0.05125
	minimum = 0.024 (at node 3)
	maximum = 0.07 (at node 6)
Accepted packet rate average = 0.04975
	minimum = 0.024 (at node 3)
	maximum = 0.066 (at node 9)
Injected flit rate average = 0.05125
	minimum = 0.024 (at node 3)
	maximum = 0.07 (at node 6)
Accepted flit rate average= 0.04975
	minimum = 0.024 (at node 3)
	maximum = 0.066 (at node 9)
Injected packet length average = 1
Accepted packet length average = 1
Total in-flight flits = 46 (0 measured)
latency change    = 0.325632
throughput change = 0.0288945
Warmed up ...Time used is 1500 cycles
Class 0:
Packet latency average = 53.6324
	minimum = 7
	maximum = 784
Network latency average = 37.7824
	minimum = 7
	maximum = 386
Slowest packet = 332196
Flit latency average = 48.9145
	minimum = 7
	maximum = 407
Slowest flit = 332037
Fragmentation average = 0
	minimum = 0
	maximum = 0
Injected packet rate average = 0.047375
	minimum = 0.022 (at node 3)
	maximum = 0.072 (at node 14)
Accepted packet rate average = 0.04825
	minimum = 0.022 (at node 12)
	maximum = 0.066 (at node 11)
Injected flit rate average = 0.047375
	minimum = 0.022 (at node 3)
	maximum = 0.072 (at node 14)
Accepted flit rate average= 0.04825
	minimum = 0.022 (at node 12)
	maximum = 0.066 (at node 11)
Injected packet length average = 1
Accepted packet length average = 1
Total in-flight flits = 40 (40 measured)
latency change    = 0.0852783
throughput change = 0.0310881
Class 0:
Packet latency average = 74.1936
	minimum = 7
	maximum = 976
Network latency average = 43.6212
	minimum = 7
	maximum = 386
Slowest packet = 332196
Flit latency average = 48.894
	minimum = 7
	maximum = 407
Slowest flit = 332037
Fragmentation average = 0
	minimum = 0
	maximum = 0
Injected packet rate average = 0.047875
	minimum = 0.024 (at node 3)
	maximum = 0.064 (at node 0)
Accepted packet rate average = 0.04775
	minimum = 0.023 (at node 12)
	maximum = 0.065 (at node 0)
Injected flit rate average = 0.047875
	minimum = 0.024 (at node 3)
	maximum = 0.064 (at node 0)
Accepted flit rate average= 0.04775
	minimum = 0.023 (at node 12)
	maximum = 0.065 (at node 0)
Injected packet length average = 1
Accepted packet length average = 1
Total in-flight flits = 48 (48 measured)
latency change    = 0.27713
throughput change = 0.0104712
Class 0:
Packet latency average = 84.1534
	minimum = 7
	maximum = 1332
Network latency average = 44.3856
	minimum = 7
	maximum = 404
Slowest packet = 332196
Flit latency average = 47.7871
	minimum = 7
	maximum = 407
Slowest flit = 332037
Fragmentation average = 0
	minimum = 0
	maximum = 0
Injected packet rate average = 0.04875
	minimum = 0.024 (at node 3)
	maximum = 0.062 (at node 14)
Accepted packet rate average = 0.0489167
	minimum = 0.0246667 (at node 12)
	maximum = 0.0633333 (at node 4)
Injected flit rate average = 0.04875
	minimum = 0.024 (at node 3)
	maximum = 0.062 (at node 14)
Accepted flit rate average= 0.0489167
	minimum = 0.0246667 (at node 12)
	maximum = 0.0633333 (at node 4)
Injected packet length average = 1
Accepted packet length average = 1
Total in-flight flits = 42 (42 measured)
latency change    = 0.118353
throughput change = 0.0238501
Class 0:
Packet latency average = 92.8724
	minimum = 7
	maximum = 1569
Network latency average = 46.203
	minimum = 7
	maximum = 491
Slowest packet = 332196
Flit latency average = 48.7125
	minimum = 7
	maximum = 491
Slowest flit = 333253
Fragmentation average = 0
	minimum = 0
	maximum = 0
Injected packet rate average = 0.0482187
	minimum = 0.0235 (at node 3)
	maximum = 0.06 (at node 14)
Accepted packet rate average = 0.0486875
	minimum = 0.0235 (at node 12)
	maximum = 0.0605 (at node 11)
Injected flit rate average = 0.0482187
	minimum = 0.0235 (at node 3)
	maximum = 0.06 (at node 14)
Accepted flit rate average= 0.0486875
	minimum = 0.0235 (at node 12)
	maximum = 0.0605 (at node 11)
Injected packet length average = 1
Accepted packet length average = 1
Total in-flight flits = 31 (31 measured)
latency change    = 0.0938814
throughput change = 0.00470689
Class 0:
Packet latency average = 102.154
	minimum = 7
	maximum = 1813
Network latency average = 46.2103
	minimum = 7
	maximum = 491
Slowest packet = 332196
Flit latency average = 48.2171
	minimum = 7
	maximum = 491
Slowest flit = 333253
Fragmentation average = 0
	minimum = 0
	maximum = 0
Injected packet rate average = 0.0485
	minimum = 0.0236 (at node 3)
	maximum = 0.0572 (at node 14)
Accepted packet rate average = 0.0487
	minimum = 0.0236 (at node 12)
	maximum = 0.0572 (at node 11)
Injected flit rate average = 0.0485
	minimum = 0.0236 (at node 3)
	maximum = 0.0572 (at node 14)
Accepted flit rate average= 0.0487
	minimum = 0.0236 (at node 12)
	maximum = 0.0572 (at node 11)
Injected packet length average = 1
Accepted packet length average = 1
Total in-flight flits = 38 (38 measured)
latency change    = 0.0908598
throughput change = 0.000256674
Class 0:
Packet latency average = 106.965
	minimum = 7
	maximum = 2119
Network latency average = 46.4747
	minimum = 7
	maximum = 491
Slowest packet = 332196
Flit latency average = 48.1416
	minimum = 7
	maximum = 491
Slowest flit = 333253
Fragmentation average = 0
	minimum = 0
	maximum = 0
Injected packet rate average = 0.0485625
	minimum = 0.0233333 (at node 3)
	maximum = 0.0563333 (at node 14)
Accepted packet rate average = 0.0487083
	minimum = 0.0233333 (at node 12)
	maximum = 0.056 (at node 9)
Injected flit rate average = 0.0485625
	minimum = 0.0233333 (at node 3)
	maximum = 0.0563333 (at node 14)
Accepted flit rate average= 0.0487083
	minimum = 0.0233333 (at node 12)
	maximum = 0.056 (at node 9)
Injected packet length average = 1
Accepted packet length average = 1
Total in-flight flits = 40 (40 measured)
latency change    = 0.0449777
throughput change = 0.000171086
Class 0:
Packet latency average = 111.868
	minimum = 7
	maximum = 2443
Network latency average = 47.461
	minimum = 7
	maximum = 491
Slowest packet = 332196
Flit latency average = 48.8881
	minimum = 7
	maximum = 491
Slowest flit = 333253
Fragmentation average = 0
	minimum = 0
	maximum = 0
Injected packet rate average = 0.0482857
	minimum = 0.0228571 (at node 3)
	maximum = 0.058 (at node 14)
Accepted packet rate average = 0.0481964
	minimum = 0.0231429 (at node 12)
	maximum = 0.0571429 (at node 11)
Injected flit rate average = 0.0482857
	minimum = 0.0228571 (at node 3)
	maximum = 0.058 (at node 14)
Accepted flit rate average= 0.0481964
	minimum = 0.0231429 (at node 12)
	maximum = 0.0571429 (at node 11)
Injected packet length average = 1
Accepted packet length average = 1
Total in-flight flits = 51 (51 measured)
latency change    = 0.0438282
throughput change = 0.0106212
Draining all recorded packets ...
Class 0:
Remaining flits: 335455 335469 335491 335500 335531 335537 335542 335548 335586 335591 [...] (40 flits)
Measured flits: 335455 335469 335491 335500 335531 335542 335548 335594 335626 335636 [...] (11 flits)
Class 0:
Remaining flits: 336153 336181 336203 336241 336253 336261 336275 336281 336294 336296 [...] (41 flits)
Measured flits: 336153 336203 336253 336261 336275 336344 336362 336369 336420 (9 flits)
Class 0:
Remaining flits: 336963 337001 337003 337008 337046 337051 337055 337062 337077 337086 [...] (36 flits)
Measured flits: 336963 337001 337008 337055 337077 337091 337102 (7 flits)
Class 0:
Remaining flits: 337761 337765 337812 337818 337829 337843 337844 337858 337872 337873 [...] (35 flits)
Measured flits: 337761 337765 337812 337829 (4 flits)
Draining remaining packets ...
Time taken is 9326 cycles
Class 0:
Packet latency average = 31.1429
	minimum = 7
	maximum = 224
Network latency average = 30.9692
	minimum = 7
	maximum = 196
Slowest packet = 338278
Flit latency average = 30.9692
	minimum = 7
	maximum = 196
Slowest flit = 338278
Fragmentation average = 0
	minimum = 0
	maximum = 0
Injected packet rate average = 0.048875
	minimum = 0.036 (at node 3)
	maximum = 0.06 (at node 7)
Accepted packet rate average = 0.044625
	minimum = 0.018 (at node 12)
	maximum = 0.058 (at node 2)
Injected flit rate average = 0.048875
	minimum = 0.036 (at node 3)
	maximum = 0.06 (at node 7)
Accepted flit rate average= 0.044625
	minimum = 0.018 (at node 12)
	maximum = 0.058 (at node 2)
Injected packet length average = 1
Accepted packet length average = 1
Total in-flight flits = 35 (0 measured)
latency change    = 1
throughput change = 1
Class 0:
Packet latency average = 39.8122
	minimum = 7
	maximum = 497
Network latency average = 38.4517
	minimum = 7
	maximum = 495
Slowest packet = 338370
Flit latency average = 38.4517
	minimum = 7
	maximum = 495
Slowest flit = 338370
Fragmentation average = 0
	minimum = 0
	maximum = 0
Injected packet rate average = 0.0484375
	minimum = 0.03 (at node 3)
	maximum = 0.056 (at node 8)
Accepted packet rate average = 0.0459375
	minimum = 0.022 (at node 12)
	maximum = 0.054 (at node 2)
Injected flit rate average = 0.0484375
	minimum = 0.03 (at node 3)
	maximum = 0.056 (at node 8)
Accepted flit rate average= 0.0459375
	minimum = 0.022 (at node 12)
	maximum = 0.054 (at node 2)
Injected packet length average = 1
Accepted packet length average = 1
Total in-flight flits = 42 (0 measured)
latency change    = 0.217757
throughput change = 0.0285714
Class 0:
Packet latency average = 62.1108
	minimum = 7
	maximum = 610
Network latency average = 47.8917
	minimum = 7
	maximum = 374
Slowest packet = 338608
Flit latency average = 47.8917
	minimum = 7
	maximum = 374
Slowest flit = 338608
Fragmentation average = 0
	minimum = 0
	maximum = 0
Injected packet rate average = 0.048625
	minimum = 0.024 (at node 3)
	maximum = 0.068 (at node 11)
Accepted packet rate average = 0.049625
	minimum = 0.026 (at node 12)
	maximum = 0.068 (at node 5)
Injected flit rate average = 0.048625
	minimum = 0.024 (at node 3)
	maximum = 0.068 (at node 11)
Accepted flit rate average= 0.049625
	minimum = 0.026 (at node 12)
	maximum = 0.068 (at node 5)
Injected packet length average = 1
Accepted packet length average = 1
Total in-flight flits = 34 (0 measured)
latency change    = 0.359013
throughput change = 0.0743073
Warmed up ...Time used is 1500 cycles
Class 0:
Packet latency average = 53.8654
	minimum = 7
	maximum = 916
Network latency average = 34.2844
	minimum = 7
	maximum = 331
Slowest packet = 339269
Flit latency average = 43.6981
	minimum = 7
	maximum = 402
Slowest flit = 339066
Fragmentation average = 0
	minimum = 0
	maximum = 0
Injected packet rate average = 0.046
	minimum = 0.028 (at node 3)
	maximum = 0.078 (at node 0)
Accepted packet rate average = 0.045125
	minimum = 0.03 (at node 9)
	maximum = 0.078 (at node 0)
Injected flit rate average = 0.046
	minimum = 0.028 (at node 3)
	maximum = 0.078 (at node 0)
Accepted flit rate average= 0.045125
	minimum = 0.03 (at node 9)
	maximum = 0.078 (at node 0)
Injected packet length average = 1
Accepted packet length average = 1
Total in-flight flits = 42 (42 measured)
latency change    = 0.153074
throughput change = 0.099723
Class 0:
Packet latency average = 69.3585
	minimum = 7
	maximum = 1254
Network latency average = 41.6954
	minimum = 7
	maximum = 379
Slowest packet = 339269
Flit latency average = 45.75
	minimum = 7
	maximum = 402
Slowest flit = 339066
Fragmentation average = 0
	minimum = 0
	maximum = 0
Injected packet rate average = 0.0488125
	minimum = 0.027 (at node 3)
	maximum = 0.078 (at node 0)
Accepted packet rate average = 0.0485
	minimum = 0.028 (at node 12)
	maximum = 0.079 (at node 0)
Injected flit rate average = 0.0488125
	minimum = 0.027 (at node 3)
	maximum = 0.078 (at node 0)
Accepted flit rate average= 0.0485
	minimum = 0.028 (at node 12)
	maximum = 0.079 (at node 0)
Injected packet length average = 1
Accepted packet length average = 1
Total in-flight flits = 39 (39 measured)
latency change    = 0.223376
throughput change = 0.0695876
Class 0:
Packet latency average = 78.7112
	minimum = 7
	maximum = 1437
Network latency average = 43.2383
	minimum = 7
	maximum = 379
Slowest packet = 339269
Flit latency average = 45.9475
	minimum = 7
	maximum = 402
Slowest flit = 339066
Fragmentation average = 0
	minimum = 0
	maximum = 0
Injected packet rate average = 0.047875
	minimum = 0.0293333 (at node 3)
	maximum = 0.0686667 (at node 0)
Accepted packet rate average = 0.0475833
	minimum = 0.0293333 (at node 12)
	maximum = 0.068 (at node 0)
Injected flit rate average = 0.047875
	minimum = 0.0293333 (at node 3)
	maximum = 0.0686667 (at node 0)
Accepted flit rate average= 0.0475833
	minimum = 0.0293333 (at node 12)
	maximum = 0.068 (at node 0)
Injected packet length average = 1
Accepted packet length average = 1
Total in-flight flits = 42 (42 measured)
latency change    = 0.118823
throughput change = 0.0192644
Class 0:
Packet latency average = 83.3556
	minimum = 7
	maximum = 1648
Network latency average = 45.3596
	minimum = 7
	maximum = 478
Slowest packet = 339269
Flit latency average = 47.3529
	minimum = 7
	maximum = 478
Slowest flit = 340311
Fragmentation average = 0
	minimum = 0
	maximum = 0
Injected packet rate average = 0.0477812
	minimum = 0.0285 (at node 3)
	maximum = 0.0635 (at node 0)
Accepted packet rate average = 0.047375
	minimum = 0.0275 (at node 12)
	maximum = 0.0635 (at node 0)
Injected flit rate average = 0.0477812
	minimum = 0.0285 (at node 3)
	maximum = 0.0635 (at node 0)
Accepted flit rate average= 0.047375
	minimum = 0.0275 (at node 12)
	maximum = 0.0635 (at node 0)
Injected packet length average = 1
Accepted packet length average = 1
Total in-flight flits = 48 (48 measured)
latency change    = 0.055718
throughput change = 0.00439754
Class 0:
Packet latency average = 90.2316
	minimum = 7
	maximum = 1777
Network latency average = 45.9828
	minimum = 7
	maximum = 478
Slowest packet = 339269
Flit latency average = 47.5695
	minimum = 7
	maximum = 478
Slowest flit = 340311
Fragmentation average = 0
	minimum = 0
	maximum = 0
Injected packet rate average = 0.047425
	minimum = 0.0276 (at node 3)
	maximum = 0.062 (at node 0)
Accepted packet rate average = 0.047275
	minimum = 0.0276 (at node 12)
	maximum = 0.0624 (at node 0)
Injected flit rate average = 0.047425
	minimum = 0.0276 (at node 3)
	maximum = 0.062 (at node 0)
Accepted flit rate average= 0.047275
	minimum = 0.0276 (at node 12)
	maximum = 0.0624 (at node 0)
Injected packet length average = 1
Accepted packet length average = 1
Total in-flight flits = 42 (42 measured)
latency change    = 0.0762034
throughput change = 0.00211528
Class 0:
Packet latency average = 95.632
	minimum = 7
	maximum = 2096
Network latency average = 46.3314
	minimum = 7
	maximum = 494
Slowest packet = 339269
Flit latency average = 47.6446
	minimum = 7
	maximum = 494
Slowest flit = 341074
Fragmentation average = 0
	minimum = 0
	maximum = 0
Injected packet rate average = 0.047375
	minimum = 0.0263333 (at node 3)
	maximum = 0.0583333 (at node 0)
Accepted packet rate average = 0.0474167
	minimum = 0.0266667 (at node 12)
	maximum = 0.0586667 (at node 0)
Injected flit rate average = 0.047375
	minimum = 0.0263333 (at node 3)
	maximum = 0.0583333 (at node 0)
Accepted flit rate average= 0.0474167
	minimum = 0.0266667 (at node 12)
	maximum = 0.0586667 (at node 0)
Injected packet length average = 1
Accepted packet length average = 1
Total in-flight flits = 33 (33 measured)
latency change    = 0.0564713
throughput change = 0.0029877
Class 0:
Packet latency average = 103.69
	minimum = 7
	maximum = 2238
Network latency average = 46.4719
	minimum = 7
	maximum = 494
Slowest packet = 339269
Flit latency average = 47.6065
	minimum = 7
	maximum = 494
Slowest flit = 341074
Fragmentation average = 0
	minimum = 0
	maximum = 0
Injected packet rate average = 0.0470536
	minimum = 0.0274286 (at node 3)
	maximum = 0.0585714 (at node 0)
Accepted packet rate average = 0.0469643
	minimum = 0.0265714 (at node 12)
	maximum = 0.0588571 (at node 0)
Injected flit rate average = 0.0470536
	minimum = 0.0274286 (at node 3)
	maximum = 0.0585714 (at node 0)
Accepted flit rate average= 0.0469643
	minimum = 0.0265714 (at node 12)
	maximum = 0.0588571 (at node 0)
Injected packet length average = 1
Accepted packet length average = 1
Total in-flight flits = 40 (40 measured)
latency change    = 0.0777079
throughput change = 0.00963245
Draining all recorded packets ...
Class 0:
Remaining flits: 342314 342327 342393 342471 342474 342496 342502 342512 342516 342519 [...] (31 flits)
Measured flits: 342314 342327 342393 342471 342502 342516 342524 (7 flits)
Class 0:
Remaining flits: 343182 343206 343212 343239 343256 343271 343275 343290 343291 343297 [...] (40 flits)
Measured flits: 343182 343206 343212 343291 343297 343303 343314 (7 flits)
Class 0:
Remaining flits: 343980 343986 344010 344040 344046 344056 344061 344068 344079 344082 [...] (38 flits)
Measured flits: 343980 343986 344010 344040 344046 344061 344079 344149 (8 flits)
Class 0:
Remaining flits: 344688 344769 344779 344832 344834 344855 344866 344877 344879 344884 [...] (41 flits)
Measured flits: 344688 344769 344779 344834 344877 344884 344892 344949 344966 (9 flits)
Draining remaining packets ...
Time taken is 9559 cycles
====== Overall Traffic Statistics ======
====== Traffic class 0 ======
Packet latency average = 216.715 (50 samples)
	minimum = 7 (50 samples)
	maximum = 3978.22 (50 samples)
Network latency average = 55.2202 (50 samples)
	minimum = 7 (50 samples)
	maximum = 510.12 (50 samples)
Flit latency average = 46.942 (50 samples)
	minimum = 7 (50 samples)
	maximum = 511.36 (50 samples)
Fragmentation average = 0 (50 samples)
	minimum = 0 (50 samples)
	maximum = 0 (50 samples)
Injected packet rate average = 0.0482849 (50 samples)
	minimum = 0.0279524 (50 samples)
	maximum = 0.0568686 (50 samples)
Accepted packet rate average = 0.0482898 (50 samples)
	minimum = 0.0279981 (50 samples)
	maximum = 0.05684 (50 samples)
Injected flit rate average = 0.0482849 (50 samples)
	minimum = 0.0279524 (50 samples)
	maximum = 0.0568686 (50 samples)
Accepted flit rate average = 0.0482898 (50 samples)
	minimum = 0.0279981 (50 samples)
	maximum = 0.05684 (50 samples)
Injected packet size average = 1 (50 samples)
Accepted packet size average = 1 (50 samples)
Hops average = 3.79154 (50 samples)
Total run time 5.8756
