BEGIN Configuration File: /tmp/tmp92cxv61y.cfg
topology = mesh;
k = 4;
n = 2;
routing_function = gnn_port_score_route_4x4;
num_vcs = 4;
vc_buf_size = 4;
wait_for_tail_credit = 1;
vc_allocator = islip;
sw_allocator = islip;
alloc_iters = 1;
credit_delay = 2;
routing_delay = 1;
vc_alloc_delay = 1;
sw_alloc_delay = 1;
input_speedup = 2;
output_speedup = 1;
internal_speedup = 1.0;
traffic = hotspot;
packet_size = 1;
sim_type = latency;
injection_rate = 0.01;
warmup_periods = 3;
sample_period = 500;
sim_count = 50;
seed = 0;
link_failures = 7;
fail_seed = 303;

END Configuration File: /tmp/tmp92cxv61y.cfg
failure at node 9, channel 2 (1/7)
failure at node 15, channel 3 (2/7)
failure at node 2, channel 2 (3/7)
failure at node 7, channel 3 (4/7)
failure at node 3, channel 2 (5/7)
failure at node 10, channel 0 (6/7)
failure at node 6, channel 1 (7/7)
Class 0:
Packet latency average = 17.175
	minimum = 7
	maximum = 29
Network latency average = 17.175
	minimum = 7
	maximum = 29
Slowest packet = 62
Flit latency average = 17.175
	minimum = 7
	maximum = 29
Slowest flit = 62
Fragmentation average = 0
	minimum = 0
	maximum = 0
Injected packet rate average = 0.010375
	minimum = 0.004 (at node 5)
	maximum = 0.016 (at node 9)
Accepted packet rate average = 0.01
	minimum = 0 (at node 0)
	maximum = 0.16 (at node 9)
Injected flit rate average = 0.010375
	minimum = 0.004 (at node 5)
	maximum = 0.016 (at node 9)
Accepted flit rate average= 0.01
	minimum = 0 (at node 0)
	maximum = 0.16 (at node 9)
Injected packet length average = 1
Accepted packet length average = 1
Total in-flight flits = 3 (0 measured)
latency change    = 1
throughput change = 1
Class 0:
Packet latency average = 17.026
	minimum = 7
	maximum = 30
Network latency average = 17.026
	minimum = 7
	maximum = 30
Slowest packet = 85
Flit latency average = 17.026
	minimum = 7
	maximum = 30
Slowest flit = 85
Fragmentation average = 0
	minimum = 0
	maximum = 0
Injected packet rate average = 0.00975
	minimum = 0.004 (at node 11)
	maximum = 0.014 (at node 13)
Accepted packet rate average = 0.009625
	minimum = 0 (at node 0)
	maximum = 0.154 (at node 9)
Injected flit rate average = 0.00975
	minimum = 0.004 (at node 11)
	maximum = 0.014 (at node 13)
Accepted flit rate average= 0.009625
	minimum = 0 (at node 0)
	maximum = 0.154 (at node 9)
Injected packet length average = 1
Accepted packet length average = 1
Total in-flight flits = 2 (0 measured)
latency change    = 0.00875286
throughput change = 0.038961
Class 0:
Packet latency average = 17.4143
	minimum = 7
	maximum = 28
Network latency average = 17.4143
	minimum = 7
	maximum = 28
Slowest packet = 213
Flit latency average = 17.4143
	minimum = 7
	maximum = 28
Slowest flit = 213
Fragmentation average = 0
	minimum = 0
	maximum = 0
Injected packet rate average = 0.00925
	minimum = 0.002 (at node 11)
	maximum = 0.016 (at node 10)
Accepted packet rate average = 0.00875
	minimum = 0 (at node 0)
	maximum = 0.14 (at node 9)
Injected flit rate average = 0.00925
	minimum = 0.002 (at node 11)
	maximum = 0.016 (at node 10)
Accepted flit rate average= 0.00875
	minimum = 0 (at node 0)
	maximum = 0.14 (at node 9)
Injected packet length average = 1
Accepted packet length average = 1
Total in-flight flits = 6 (0 measured)
latency change    = 0.0222985
throughput change = 0.1
Warmed up ...Time used is 1500 cycles
Class 0:
Packet latency average = 17.2533
	minimum = 7
	maximum = 31
Network latency average = 17.2533
	minimum = 7
	maximum = 31
Slowest packet = 251
Flit latency average = 17.7284
	minimum = 7
	maximum = 31
Slowest flit = 251
Fragmentation average = 0
	minimum = 0
	maximum = 0
Injected packet rate average = 0.00975
	minimum = 0.004 (at node 3)
	maximum = 0.018 (at node 8)
Accepted packet rate average = 0.010125
	minimum = 0 (at node 0)
	maximum = 0.162 (at node 9)
Injected flit rate average = 0.00975
	minimum = 0.004 (at node 3)
	maximum = 0.018 (at node 8)
Accepted flit rate average= 0.010125
	minimum = 0 (at node 0)
	maximum = 0.162 (at node 9)
Injected packet length average = 1
Accepted packet length average = 1
Total in-flight flits = 3 (3 measured)
latency change    = 0.00932877
throughput change = 0.135802
Class 0:
Packet latency average = 17.0131
	minimum = 7
	maximum = 31
Network latency average = 17.0131
	minimum = 7
	maximum = 31
Slowest packet = 251
Flit latency average = 17.2642
	minimum = 7
	maximum = 31
Slowest flit = 251
Fragmentation average = 0
	minimum = 0
	maximum = 0
Injected packet rate average = 0.0096875
	minimum = 0.005 (at node 7)
	maximum = 0.016 (at node 13)
Accepted packet rate average = 0.0099375
	minimum = 0 (at node 0)
	maximum = 0.159 (at node 9)
Injected flit rate average = 0.0096875
	minimum = 0.005 (at node 7)
	maximum = 0.016 (at node 13)
Accepted flit rate average= 0.0099375
	minimum = 0 (at node 0)
	maximum = 0.159 (at node 9)
Injected packet length average = 1
Accepted packet length average = 1
Total in-flight flits = 2 (2 measured)
latency change    = 0.0141222
throughput change = 0.0188679
Class 0:
Packet latency average = 17.1857
	minimum = 7
	maximum = 31
Network latency average = 17.1857
	minimum = 7
	maximum = 31
Slowest packet = 251
Flit latency average = 17.3457
	minimum = 7
	maximum = 31
Slowest flit = 251
Fragmentation average = 0
	minimum = 0
	maximum = 0
Injected packet rate average = 0.00991667
	minimum = 0.00733333 (at node 7)
	maximum = 0.0133333 (at node 13)
Accepted packet rate average = 0.010125
	minimum = 0 (at node 0)
	maximum = 0.162 (at node 9)
Injected flit rate average = 0.00991667
	minimum = 0.00733333 (at node 7)
	maximum = 0.0133333 (at node 13)
Accepted flit rate average= 0.010125
	minimum = 0 (at node 0)
	maximum = 0.162 (at node 9)
Injected packet length average = 1
Accepted packet length average = 1
Total in-flight flits = 1 (1 measured)
latency change    = 0.0100422
throughput change = 0.0185185
Class 0:
Packet latency average = 17.3726
	minimum = 7
	maximum = 33
Network latency average = 17.3726
	minimum = 7
	maximum = 33
Slowest packet = 514
Flit latency average = 17.4906
	minimum = 7
	maximum = 33
Slowest flit = 514
Fragmentation average = 0
	minimum = 0
	maximum = 0
Injected packet rate average = 0.00990625
	minimum = 0.0075 (at node 1)
	maximum = 0.013 (at node 8)
Accepted packet rate average = 0.01
	minimum = 0 (at node 0)
	maximum = 0.16 (at node 9)
Injected flit rate average = 0.00990625
	minimum = 0.0075 (at node 1)
	maximum = 0.013 (at node 8)
Accepted flit rate average= 0.01
	minimum = 0 (at node 0)
	maximum = 0.16 (at node 9)
Injected packet length average = 1
Accepted packet length average = 1
Total in-flight flits = 3 (3 measured)
latency change    = 0.0107616
throughput change = 0.0125
Draining all recorded packets ...
Draining remaining packets ...
Time taken is 3545 cycles
Class 0:
Packet latency average = 17.4603
	minimum = 7
	maximum = 28
Network latency average = 17.4603
	minimum = 7
	maximum = 28
Slowest packet = 581
Flit latency average = 17.4603
	minimum = 7
	maximum = 28
Slowest flit = 581
Fragmentation average = 0
	minimum = 0
	maximum = 0
Injected packet rate average = 0.008125
	minimum = 0.004 (at node 5)
	maximum = 0.016 (at node 11)
Accepted packet rate average = 0.007875
	minimum = 0 (at node 0)
	maximum = 0.126 (at node 9)
Injected flit rate average = 0.008125
	minimum = 0.004 (at node 5)
	maximum = 0.016 (at node 11)
Accepted flit rate average= 0.007875
	minimum = 0 (at node 0)
	maximum = 0.126 (at node 9)
Injected packet length average = 1
Accepted packet length average = 1
Total in-flight flits = 2 (0 measured)
latency change    = 1
throughput change = 1
Class 0:
Packet latency average = 17.0797
	minimum = 7
	maximum = 30
Network latency average = 17.0797
	minimum = 7
	maximum = 30
Slowest packet = 664
Flit latency average = 17.0797
	minimum = 7
	maximum = 30
Slowest flit = 664
Fragmentation average = 0
	minimum = 0
	maximum = 0
Injected packet rate average = 0.008875
	minimum = 0.006 (at node 8)
	maximum = 0.016 (at node 10)
Accepted packet rate average = 0.008625
	minimum = 0 (at node 0)
	maximum = 0.138 (at node 9)
Injected flit rate average = 0.008875
	minimum = 0.006 (at node 8)
	maximum = 0.016 (at node 10)
Accepted flit rate average= 0.008625
	minimum = 0 (at node 0)
	maximum = 0.138 (at node 9)
Injected packet length average = 1
Accepted packet length average = 1
Total in-flight flits = 4 (0 measured)
latency change    = 0.0222842
throughput change = 0.0869565
Class 0:
Packet latency average = 17.5714
	minimum = 7
	maximum = 27
Network latency average = 17.5714
	minimum = 7
	maximum = 27
Slowest packet = 706
Flit latency average = 17.5714
	minimum = 7
	maximum = 27
Slowest flit = 706
Fragmentation average = 0
	minimum = 0
	maximum = 0
Injected packet rate average = 0.008625
	minimum = 0.004 (at node 9)
	maximum = 0.016 (at node 6)
Accepted packet rate average = 0.00875
	minimum = 0 (at node 0)
	maximum = 0.14 (at node 9)
Injected flit rate average = 0.008625
	minimum = 0.004 (at node 9)
	maximum = 0.016 (at node 6)
Accepted flit rate average= 0.00875
	minimum = 0 (at node 0)
	maximum = 0.14 (at node 9)
Injected packet length average = 1
Accepted packet length average = 1
Total in-flight flits = 3 (0 measured)
latency change    = 0.027984
throughput change = 0.0142857
Warmed up ...Time used is 1500 cycles
Class 0:
Packet latency average = 18
	minimum = 7
	maximum = 38
Network latency average = 18
	minimum = 7
	maximum = 38
Slowest packet = 790
Flit latency average = 18.0241
	minimum = 7
	maximum = 38
Slowest flit = 790
Fragmentation average = 0
	minimum = 0
	maximum = 0
Injected packet rate average = 0.01075
	minimum = 0.002 (at node 2)
	maximum = 0.02 (at node 15)
Accepted packet rate average = 0.010375
	minimum = 0 (at node 0)
	maximum = 0.166 (at node 9)
Injected flit rate average = 0.01075
	minimum = 0.002 (at node 2)
	maximum = 0.02 (at node 15)
Accepted flit rate average= 0.010375
	minimum = 0 (at node 0)
	maximum = 0.166 (at node 9)
Injected packet length average = 1
Accepted packet length average = 1
Total in-flight flits = 6 (6 measured)
latency change    = 0.0238095
throughput change = 0.156627
Class 0:
Packet latency average = 17.6731
	minimum = 7
	maximum = 38
Network latency average = 17.6731
	minimum = 7
	maximum = 38
Slowest packet = 790
Flit latency average = 17.6918
	minimum = 7
	maximum = 38
Slowest flit = 790
Fragmentation average = 0
	minimum = 0
	maximum = 0
Injected packet rate average = 0.0100625
	minimum = 0.005 (at node 6)
	maximum = 0.016 (at node 3)
Accepted packet rate average = 0.0099375
	minimum = 0 (at node 0)
	maximum = 0.159 (at node 9)
Injected flit rate average = 0.0100625
	minimum = 0.005 (at node 6)
	maximum = 0.016 (at node 3)
Accepted flit rate average= 0.0099375
	minimum = 0 (at node 0)
	maximum = 0.159 (at node 9)
Injected packet length average = 1
Accepted packet length average = 1
Total in-flight flits = 5 (5 measured)
latency change    = 0.0184984
throughput change = 0.0440252
Class 0:
Packet latency average = 17.9083
	minimum = 7
	maximum = 38
Network latency average = 17.9083
	minimum = 7
	maximum = 38
Slowest packet = 790
Flit latency average = 17.9177
	minimum = 7
	maximum = 38
Slowest flit = 790
Fragmentation average = 0
	minimum = 0
	maximum = 0
Injected packet rate average = 0.01025
	minimum = 0.006 (at node 10)
	maximum = 0.0173333 (at node 3)
Accepted packet rate average = 0.010125
	minimum = 0 (at node 0)
	maximum = 0.162 (at node 9)
Injected flit rate average = 0.01025
	minimum = 0.006 (at node 10)
	maximum = 0.0173333 (at node 3)
Accepted flit rate average= 0.010125
	minimum = 0 (at node 0)
	maximum = 0.162 (at node 9)
Injected packet length average = 1
Accepted packet length average = 1
Total in-flight flits = 6 (6 measured)
latency change    = 0.0131367
throughput change = 0.0185185
Class 0:
Packet latency average = 17.7129
	minimum = 7
	maximum = 49
Network latency average = 17.7129
	minimum = 7
	maximum = 49
Slowest packet = 1007
Flit latency average = 17.7219
	minimum = 7
	maximum = 49
Slowest flit = 1007
Fragmentation average = 0
	minimum = 0
	maximum = 0
Injected packet rate average = 0.01
	minimum = 0.0055 (at node 2)
	maximum = 0.016 (at node 13)
Accepted packet rate average = 0.01
	minimum = 0 (at node 0)
	maximum = 0.16 (at node 9)
Injected flit rate average = 0.01
	minimum = 0.0055 (at node 2)
	maximum = 0.016 (at node 13)
Accepted flit rate average= 0.01
	minimum = 0 (at node 0)
	maximum = 0.16 (at node 9)
Injected packet length average = 1
Accepted packet length average = 1
Total in-flight flits = 3 (3 measured)
latency change    = 0.0110315
throughput change = 0.0125
Draining all recorded packets ...
Draining remaining packets ...
Time taken is 3531 cycles
Class 0:
Packet latency average = 17.8933
	minimum = 7
	maximum = 27
Network latency average = 17.8933
	minimum = 7
	maximum = 27
Slowest packet = 1094
Flit latency average = 17.8933
	minimum = 7
	maximum = 27
Slowest flit = 1094
Fragmentation average = 0
	minimum = 0
	maximum = 0
Injected packet rate average = 0.01025
	minimum = 0.004 (at node 8)
	maximum = 0.016 (at node 1)
Accepted packet rate average = 0.009375
	minimum = 0 (at node 0)
	maximum = 0.15 (at node 9)
Injected flit rate average = 0.01025
	minimum = 0.004 (at node 8)
	maximum = 0.016 (at node 1)
Accepted flit rate average= 0.009375
	minimum = 0 (at node 0)
	maximum = 0.15 (at node 9)
Injected packet length average = 1
Accepted packet length average = 1
Total in-flight flits = 7 (0 measured)
latency change    = 1
throughput change = 1
Class 0:
Packet latency average = 17.8343
	minimum = 7
	maximum = 36
Network latency average = 17.8343
	minimum = 7
	maximum = 36
Slowest packet = 1240
Flit latency average = 17.8343
	minimum = 7
	maximum = 36
Slowest flit = 1240
Fragmentation average = 0
	minimum = 0
	maximum = 0
Injected packet rate average = 0.01075
	minimum = 0.006 (at node 8)
	maximum = 0.018 (at node 1)
Accepted packet rate average = 0.0105625
	minimum = 0 (at node 0)
	maximum = 0.169 (at node 9)
Injected flit rate average = 0.01075
	minimum = 0.006 (at node 8)
	maximum = 0.018 (at node 1)
Accepted flit rate average= 0.0105625
	minimum = 0 (at node 0)
	maximum = 0.169 (at node 9)
Injected packet length average = 1
Accepted packet length average = 1
Total in-flight flits = 3 (0 measured)
latency change    = 0.003309
throughput change = 0.112426
Class 0:
Packet latency average = 17.74
	minimum = 7
	maximum = 31
Network latency average = 17.74
	minimum = 7
	maximum = 31
Slowest packet = 1322
Flit latency average = 17.74
	minimum = 7
	maximum = 31
Slowest flit = 1322
Fragmentation average = 0
	minimum = 0
	maximum = 0
Injected packet rate average = 0.012125
	minimum = 0.006 (at node 8)
	maximum = 0.018 (at node 9)
Accepted packet rate average = 0.0125
	minimum = 0 (at node 0)
	maximum = 0.2 (at node 9)
Injected flit rate average = 0.012125
	minimum = 0.006 (at node 8)
	maximum = 0.018 (at node 9)
Accepted flit rate average= 0.0125
	minimum = 0 (at node 0)
	maximum = 0.2 (at node 9)
Injected packet length average = 1
Accepted packet length average = 1
Total in-flight flits = 0 (0 measured)
latency change    = 0.00531677
throughput change = 0.155
Warmed up ...Time used is 1500 cycles
Class 0:
Packet latency average = 17.092
	minimum = 7
	maximum = 28
Network latency average = 17.092
	minimum = 7
	maximum = 28
Slowest packet = 1386
Flit latency average = 17.092
	minimum = 7
	maximum = 28
Slowest flit = 1386
Fragmentation average = 0
	minimum = 0
	maximum = 0
Injected packet rate average = 0.011375
	minimum = 0.006 (at node 5)
	maximum = 0.016 (at node 1)
Accepted packet rate average = 0.010875
	minimum = 0 (at node 0)
	maximum = 0.174 (at node 9)
Injected flit rate average = 0.011375
	minimum = 0.006 (at node 5)
	maximum = 0.016 (at node 1)
Accepted flit rate average= 0.010875
	minimum = 0 (at node 0)
	maximum = 0.174 (at node 9)
Injected packet length average = 1
Accepted packet length average = 1
Total in-flight flits = 4 (4 measured)
latency change    = 0.0379153
throughput change = 0.149425
Class 0:
Packet latency average = 17.1707
	minimum = 7
	maximum = 29
Network latency average = 17.1707
	minimum = 7
	maximum = 29
Slowest packet = 1488
Flit latency average = 17.1707
	minimum = 7
	maximum = 29
Slowest flit = 1488
Fragmentation average = 0
	minimum = 0
	maximum = 0
Injected packet rate average = 0.0105
	minimum = 0.004 (at node 5)
	maximum = 0.016 (at node 7)
Accepted packet rate average = 0.01025
	minimum = 0 (at node 0)
	maximum = 0.164 (at node 9)
Injected flit rate average = 0.0105
	minimum = 0.004 (at node 5)
	maximum = 0.016 (at node 7)
Accepted flit rate average= 0.01025
	minimum = 0 (at node 0)
	maximum = 0.164 (at node 9)
Injected packet length average = 1
Accepted packet length average = 1
Total in-flight flits = 4 (4 measured)
latency change    = 0.0045879
throughput change = 0.0609756
Class 0:
Packet latency average = 17.1853
	minimum = 7
	maximum = 33
Network latency average = 17.1853
	minimum = 7
	maximum = 33
Slowest packet = 1516
Flit latency average = 17.1853
	minimum = 7
	maximum = 33
Slowest flit = 1516
Fragmentation average = 0
	minimum = 0
	maximum = 0
Injected packet rate average = 0.00975
	minimum = 0.00466667 (at node 5)
	maximum = 0.014 (at node 10)
Accepted packet rate average = 0.00966667
	minimum = 0 (at node 0)
	maximum = 0.154667 (at node 9)
Injected flit rate average = 0.00975
	minimum = 0.00466667 (at node 5)
	maximum = 0.014 (at node 10)
Accepted flit rate average= 0.00966667
	minimum = 0 (at node 0)
	maximum = 0.154667 (at node 9)
Injected packet length average = 1
Accepted packet length average = 1
Total in-flight flits = 2 (2 measured)
latency change    = 0.000850325
throughput change = 0.0603448
Class 0:
Packet latency average = 17.1521
	minimum = 7
	maximum = 33
Network latency average = 17.1521
	minimum = 7
	maximum = 33
Slowest packet = 1516
Flit latency average = 17.1521
	minimum = 7
	maximum = 33
Slowest flit = 1516
Fragmentation average = 0
	minimum = 0
	maximum = 0
Injected packet rate average = 0.00971875
	minimum = 0.0055 (at node 2)
	maximum = 0.013 (at node 1)
Accepted packet rate average = 0.00965625
	minimum = 0 (at node 0)
	maximum = 0.1545 (at node 9)
Injected flit rate average = 0.00971875
	minimum = 0.0055 (at node 2)
	maximum = 0.013 (at node 1)
Accepted flit rate average= 0.00965625
	minimum = 0 (at node 0)
	maximum = 0.1545 (at node 9)
Injected packet length average = 1
Accepted packet length average = 1
Total in-flight flits = 2 (2 measured)
latency change    = 0.00193803
throughput change = 0.00107875
Class 0:
Packet latency average = 17.1224
	minimum = 7
	maximum = 33
Network latency average = 17.1224
	minimum = 7
	maximum = 33
Slowest packet = 1516
Flit latency average = 17.1224
	minimum = 7
	maximum = 33
Slowest flit = 1516
Fragmentation average = 0
	minimum = 0
	maximum = 0
Injected packet rate average = 0.00985
	minimum = 0.0064 (at node 2)
	maximum = 0.0136 (at node 1)
Accepted packet rate average = 0.0098
	minimum = 0 (at node 0)
	maximum = 0.1568 (at node 9)
Injected flit rate average = 0.00985
	minimum = 0.0064 (at node 2)
	maximum = 0.0136 (at node 1)
Accepted flit rate average= 0.0098
	minimum = 0 (at node 0)
	maximum = 0.1568 (at node 9)
Injected packet length average = 1
Accepted packet length average = 1
Total in-flight flits = 2 (2 measured)
latency change    = 0.00173191
throughput change = 0.0146684
Class 0:
Packet latency average = 17.3195
	minimum = 7
	maximum = 38
Network latency average = 17.3195
	minimum = 7
	maximum = 38
Slowest packet = 1796
Flit latency average = 17.3195
	minimum = 7
	maximum = 38
Slowest flit = 1796
Fragmentation average = 0
	minimum = 0
	maximum = 0
Injected packet rate average = 0.0100417
	minimum = 0.00766667 (at node 5)
	maximum = 0.013 (at node 1)
Accepted packet rate average = 0.0100417
	minimum = 0 (at node 0)
	maximum = 0.160667 (at node 9)
Injected flit rate average = 0.0100417
	minimum = 0.00766667 (at node 5)
	maximum = 0.013 (at node 1)
Accepted flit rate average= 0.0100417
	minimum = 0 (at node 0)
	maximum = 0.160667 (at node 9)
Injected packet length average = 1
Accepted packet length average = 1
Total in-flight flits = 0 (0 measured)
latency change    = 0.0113775
throughput change = 0.0240664
Draining all recorded packets ...
Draining remaining packets ...
Time taken is 4501 cycles
Class 0:
Packet latency average = 17.1625
	minimum = 7
	maximum = 28
Network latency average = 17.1625
	minimum = 7
	maximum = 28
Slowest packet = 1903
Flit latency average = 17.1625
	minimum = 7
	maximum = 28
Slowest flit = 1903
Fragmentation average = 0
	minimum = 0
	maximum = 0
Injected packet rate average = 0.010375
	minimum = 0.006 (at node 3)
	maximum = 0.018 (at node 7)
Accepted packet rate average = 0.01
	minimum = 0 (at node 0)
	maximum = 0.16 (at node 9)
Injected flit rate average = 0.010375
	minimum = 0.006 (at node 3)
	maximum = 0.018 (at node 7)
Accepted flit rate average= 0.01
	minimum = 0 (at node 0)
	maximum = 0.16 (at node 9)
Injected packet length average = 1
Accepted packet length average = 1
Total in-flight flits = 3 (0 measured)
latency change    = 1
throughput change = 1
Class 0:
Packet latency average = 17.9583
	minimum = 7
	maximum = 40
Network latency average = 17.9583
	minimum = 7
	maximum = 40
Slowest packet = 1993
Flit latency average = 17.9583
	minimum = 7
	maximum = 40
Slowest flit = 1993
Fragmentation average = 0
	minimum = 0
	maximum = 0
Injected packet rate average = 0.0105625
	minimum = 0.006 (at node 9)
	maximum = 0.018 (at node 7)
Accepted packet rate average = 0.0105
	minimum = 0 (at node 0)
	maximum = 0.168 (at node 9)
Injected flit rate average = 0.0105625
	minimum = 0.006 (at node 9)
	maximum = 0.018 (at node 7)
Accepted flit rate average= 0.0105
	minimum = 0 (at node 0)
	maximum = 0.168 (at node 9)
Injected packet length average = 1
Accepted packet length average = 1
Total in-flight flits = 1 (0 measured)
latency change    = 0.0443155
throughput change = 0.047619
Class 0:
Packet latency average = 16.7625
	minimum = 7
	maximum = 28
Network latency average = 16.7625
	minimum = 7
	maximum = 28
Slowest packet = 2069
Flit latency average = 16.7625
	minimum = 7
	maximum = 28
Slowest flit = 2069
Fragmentation average = 0
	minimum = 0
	maximum = 0
Injected packet rate average = 0.01
	minimum = 0.008 (at node 0)
	maximum = 0.016 (at node 13)
Accepted packet rate average = 0.01
	minimum = 0 (at node 0)
	maximum = 0.16 (at node 9)
Injected flit rate average = 0.01
	minimum = 0.008 (at node 0)
	maximum = 0.016 (at node 13)
Accepted flit rate average= 0.01
	minimum = 0 (at node 0)
	maximum = 0.16 (at node 9)
Injected packet length average = 1
Accepted packet length average = 1
Total in-flight flits = 1 (0 measured)
latency change    = 0.0713398
throughput change = 0.05
Warmed up ...Time used is 1500 cycles
Class 0:
Packet latency average = 16.6988
	minimum = 7
	maximum = 34
Network latency average = 16.6988
	minimum = 7
	maximum = 34
Slowest packet = 2141
Flit latency average = 16.7619
	minimum = 7
	maximum = 34
Slowest flit = 2141
Fragmentation average = 0
	minimum = 0
	maximum = 0
Injected packet rate average = 0.011
	minimum = 0 (at node 14)
	maximum = 0.02 (at node 10)
Accepted packet rate average = 0.0105
	minimum = 0 (at node 0)
	maximum = 0.168 (at node 9)
Injected flit rate average = 0.011
	minimum = 0 (at node 14)
	maximum = 0.02 (at node 10)
Accepted flit rate average= 0.0105
	minimum = 0 (at node 0)
	maximum = 0.168 (at node 9)
Injected packet length average = 1
Accepted packet length average = 1
Total in-flight flits = 5 (5 measured)
latency change    = 0.00381494
throughput change = 0.047619
Class 0:
Packet latency average = 17.2564
	minimum = 7
	maximum = 34
Network latency average = 17.2564
	minimum = 7
	maximum = 34
Slowest packet = 2141
Flit latency average = 17.2866
	minimum = 7
	maximum = 34
Slowest flit = 2141
Fragmentation average = 0
	minimum = 0
	maximum = 0
Injected packet rate average = 0.0100625
	minimum = 0.005 (at node 14)
	maximum = 0.014 (at node 6)
Accepted packet rate average = 0.0098125
	minimum = 0 (at node 0)
	maximum = 0.157 (at node 9)
Injected flit rate average = 0.0100625
	minimum = 0.005 (at node 14)
	maximum = 0.014 (at node 6)
Accepted flit rate average= 0.0098125
	minimum = 0 (at node 0)
	maximum = 0.157 (at node 9)
Injected packet length average = 1
Accepted packet length average = 1
Total in-flight flits = 5 (5 measured)
latency change    = 0.0323135
throughput change = 0.0700637
Class 0:
Packet latency average = 17.2585
	minimum = 7
	maximum = 34
Network latency average = 17.2585
	minimum = 7
	maximum = 34
Slowest packet = 2141
Flit latency average = 17.2785
	minimum = 7
	maximum = 34
Slowest flit = 2141
Fragmentation average = 0
	minimum = 0
	maximum = 0
Injected packet rate average = 0.00991667
	minimum = 0.00533333 (at node 14)
	maximum = 0.014 (at node 10)
Accepted packet rate average = 0.009875
	minimum = 0 (at node 0)
	maximum = 0.158 (at node 9)
Injected flit rate average = 0.00991667
	minimum = 0.00533333 (at node 14)
	maximum = 0.014 (at node 10)
Accepted flit rate average= 0.009875
	minimum = 0 (at node 0)
	maximum = 0.158 (at node 9)
Injected packet length average = 1
Accepted packet length average = 1
Total in-flight flits = 2 (2 measured)
latency change    = 0.000119612
throughput change = 0.00632911
Class 0:
Packet latency average = 17.1373
	minimum = 7
	maximum = 34
Network latency average = 17.1373
	minimum = 7
	maximum = 34
Slowest packet = 2141
Flit latency average = 17.1531
	minimum = 7
	maximum = 34
Slowest flit = 2141
Fragmentation average = 0
	minimum = 0
	maximum = 0
Injected packet rate average = 0.00965625
	minimum = 0.006 (at node 14)
	maximum = 0.0125 (at node 9)
Accepted packet rate average = 0.00959375
	minimum = 0 (at node 0)
	maximum = 0.1535 (at node 9)
Injected flit rate average = 0.00965625
	minimum = 0.006 (at node 14)
	maximum = 0.0125 (at node 9)
Accepted flit rate average= 0.00959375
	minimum = 0 (at node 0)
	maximum = 0.1535 (at node 9)
Injected packet length average = 1
Accepted packet length average = 1
Total in-flight flits = 3 (3 measured)
latency change    = 0.00707346
throughput change = 0.029316
Class 0:
Packet latency average = 17.0128
	minimum = 7
	maximum = 34
Network latency average = 17.0128
	minimum = 7
	maximum = 34
Slowest packet = 2141
Flit latency average = 17.0256
	minimum = 7
	maximum = 34
Slowest flit = 2141
Fragmentation average = 0
	minimum = 0
	maximum = 0
Injected packet rate average = 0.0098
	minimum = 0.006 (at node 3)
	maximum = 0.0124 (at node 7)
Accepted packet rate average = 0.009775
	minimum = 0 (at node 0)
	maximum = 0.1564 (at node 9)
Injected flit rate average = 0.0098
	minimum = 0.006 (at node 3)
	maximum = 0.0124 (at node 7)
Accepted flit rate average= 0.009775
	minimum = 0 (at node 0)
	maximum = 0.1564 (at node 9)
Injected packet length average = 1
Accepted packet length average = 1
Total in-flight flits = 2 (2 measured)
latency change    = 0.00731415
throughput change = 0.0185422
Draining all recorded packets ...
Draining remaining packets ...
Time taken is 4007 cycles
Class 0:
Packet latency average = 16.5556
	minimum = 7
	maximum = 28
Network latency average = 16.5556
	minimum = 7
	maximum = 28
Slowest packet = 2543
Flit latency average = 16.5556
	minimum = 7
	maximum = 28
Slowest flit = 2543
Fragmentation average = 0
	minimum = 0
	maximum = 0
Injected packet rate average = 0.010375
	minimum = 0.002 (at node 0)
	maximum = 0.016 (at node 8)
Accepted packet rate average = 0.010125
	minimum = 0 (at node 0)
	maximum = 0.162 (at node 9)
Injected flit rate average = 0.010375
	minimum = 0.002 (at node 0)
	maximum = 0.016 (at node 8)
Accepted flit rate average= 0.010125
	minimum = 0 (at node 0)
	maximum = 0.162 (at node 9)
Injected packet length average = 1
Accepted packet length average = 1
Total in-flight flits = 2 (0 measured)
latency change    = 1
throughput change = 1
Class 0:
Packet latency average = 16.7799
	minimum = 7
	maximum = 31
Network latency average = 16.7799
	minimum = 7
	maximum = 31
Slowest packet = 2583
Flit latency average = 16.7799
	minimum = 7
	maximum = 31
Slowest flit = 2583
Fragmentation average = 0
	minimum = 0
	maximum = 0
Injected packet rate average = 0.0101875
	minimum = 0.008 (at node 0)
	maximum = 0.013 (at node 5)
Accepted packet rate average = 0.0099375
	minimum = 0 (at node 0)
	maximum = 0.159 (at node 9)
Injected flit rate average = 0.0101875
	minimum = 0.008 (at node 0)
	maximum = 0.013 (at node 5)
Accepted flit rate average= 0.0099375
	minimum = 0 (at node 0)
	maximum = 0.159 (at node 9)
Injected packet length average = 1
Accepted packet length average = 1
Total in-flight flits = 4 (0 measured)
latency change    = 0.0133683
throughput change = 0.0188679
Class 0:
Packet latency average = 17.1154
	minimum = 7
	maximum = 28
Network latency average = 17.1154
	minimum = 7
	maximum = 28
Slowest packet = 2666
Flit latency average = 17.1154
	minimum = 7
	maximum = 28
Slowest flit = 2666
Fragmentation average = 0
	minimum = 0
	maximum = 0
Injected packet rate average = 0.01
	minimum = 0.004 (at node 4)
	maximum = 0.02 (at node 11)
Accepted packet rate average = 0.00975
	minimum = 0 (at node 0)
	maximum = 0.156 (at node 9)
Injected flit rate average = 0.01
	minimum = 0.004 (at node 4)
	maximum = 0.02 (at node 11)
Accepted flit rate average= 0.00975
	minimum = 0 (at node 0)
	maximum = 0.156 (at node 9)
Injected packet length average = 1
Accepted packet length average = 1
Total in-flight flits = 6 (0 measured)
latency change    = 0.0196029
throughput change = 0.0192308
Warmed up ...Time used is 1500 cycles
Class 0:
Packet latency average = 17.5156
	minimum = 7
	maximum = 28
Network latency average = 17.5156
	minimum = 7
	maximum = 28
Slowest packet = 2759
Flit latency average = 17.4857
	minimum = 7
	maximum = 28
Slowest flit = 2759
Fragmentation average = 0
	minimum = 0
	maximum = 0
Injected packet rate average = 0.00825
	minimum = 0.002 (at node 8)
	maximum = 0.016 (at node 11)
Accepted packet rate average = 0.00875
	minimum = 0 (at node 0)
	maximum = 0.14 (at node 9)
Injected flit rate average = 0.00825
	minimum = 0.002 (at node 8)
	maximum = 0.016 (at node 11)
Accepted flit rate average= 0.00875
	minimum = 0 (at node 0)
	maximum = 0.14 (at node 9)
Injected packet length average = 1
Accepted packet length average = 1
Total in-flight flits = 2 (2 measured)
latency change    = 0.0228505
throughput change = 0.114286
Class 0:
Packet latency average = 17.169
	minimum = 7
	maximum = 28
Network latency average = 17.169
	minimum = 7
	maximum = 28
Slowest packet = 2759
Flit latency average = 17.1689
	minimum = 7
	maximum = 28
Slowest flit = 2759
Fragmentation average = 0
	minimum = 0
	maximum = 0
Injected packet rate average = 0.0091875
	minimum = 0.004 (at node 2)
	maximum = 0.015 (at node 11)
Accepted packet rate average = 0.00925
	minimum = 0 (at node 0)
	maximum = 0.148 (at node 9)
Injected flit rate average = 0.0091875
	minimum = 0.004 (at node 2)
	maximum = 0.015 (at node 11)
Accepted flit rate average= 0.00925
	minimum = 0 (at node 0)
	maximum = 0.148 (at node 9)
Injected packet length average = 1
Accepted packet length average = 1
Total in-flight flits = 5 (5 measured)
latency change    = 0.0201882
throughput change = 0.0540541
Class 0:
Packet latency average = 17.3377
	minimum = 7
	maximum = 28
Network latency average = 17.3377
	minimum = 7
	maximum = 28
Slowest packet = 2759
Flit latency average = 17.3333
	minimum = 7
	maximum = 28
Slowest flit = 2759
Fragmentation average = 0
	minimum = 0
	maximum = 0
Injected packet rate average = 0.00958333
	minimum = 0.00466667 (at node 9)
	maximum = 0.0146667 (at node 12)
Accepted packet rate average = 0.00975
	minimum = 0 (at node 0)
	maximum = 0.156 (at node 9)
Injected flit rate average = 0.00958333
	minimum = 0.00466667 (at node 9)
	maximum = 0.0146667 (at node 12)
Accepted flit rate average= 0.00975
	minimum = 0 (at node 0)
	maximum = 0.156 (at node 9)
Injected packet length average = 1
Accepted packet length average = 1
Total in-flight flits = 2 (2 measured)
latency change    = 0.00973053
throughput change = 0.0512821
Class 0:
Packet latency average = 17.2196
	minimum = 7
	maximum = 28
Network latency average = 17.2196
	minimum = 7
	maximum = 28
Slowest packet = 2759
Flit latency average = 17.2185
	minimum = 7
	maximum = 28
Slowest flit = 2759
Fragmentation average = 0
	minimum = 0
	maximum = 0
Injected packet rate average = 0.0093125
	minimum = 0.0035 (at node 9)
	maximum = 0.0145 (at node 11)
Accepted packet rate average = 0.0094375
	minimum = 0 (at node 0)
	maximum = 0.151 (at node 9)
Injected flit rate average = 0.0093125
	minimum = 0.0035 (at node 9)
	maximum = 0.0145 (at node 11)
Accepted flit rate average= 0.0094375
	minimum = 0 (at node 0)
	maximum = 0.151 (at node 9)
Injected packet length average = 1
Accepted packet length average = 1
Total in-flight flits = 2 (2 measured)
latency change    = 0.0068599
throughput change = 0.0331126
Class 0:
Packet latency average = 17.3908
	minimum = 7
	maximum = 28
Network latency average = 17.3908
	minimum = 7
	maximum = 28
Slowest packet = 2759
Flit latency average = 17.3873
	minimum = 7
	maximum = 28
Slowest flit = 2759
Fragmentation average = 0
	minimum = 0
	maximum = 0
Injected packet rate average = 0.00935
	minimum = 0.0044 (at node 9)
	maximum = 0.0136 (at node 11)
Accepted packet rate average = 0.009425
	minimum = 0 (at node 0)
	maximum = 0.1508 (at node 9)
Injected flit rate average = 0.00935
	minimum = 0.0044 (at node 9)
	maximum = 0.0136 (at node 11)
Accepted flit rate average= 0.009425
	minimum = 0 (at node 0)
	maximum = 0.1508 (at node 9)
Injected packet length average = 1
Accepted packet length average = 1
Total in-flight flits = 3 (3 measured)
latency change    = 0.00984662
throughput change = 0.00132626
Class 0:
Packet latency average = 17.4159
	minimum = 7
	maximum = 37
Network latency average = 17.4159
	minimum = 7
	maximum = 37
Slowest packet = 3118
Flit latency average = 17.4126
	minimum = 7
	maximum = 37
Slowest flit = 3118
Fragmentation average = 0
	minimum = 0
	maximum = 0
Injected packet rate average = 0.0091875
	minimum = 0.005 (at node 9)
	maximum = 0.0136667 (at node 11)
Accepted packet rate average = 0.00929167
	minimum = 0 (at node 0)
	maximum = 0.148667 (at node 9)
Injected flit rate average = 0.0091875
	minimum = 0.005 (at node 9)
	maximum = 0.0136667 (at node 11)
Accepted flit rate average= 0.00929167
	minimum = 0 (at node 0)
	maximum = 0.148667 (at node 9)
Injected packet length average = 1
Accepted packet length average = 1
Total in-flight flits = 1 (1 measured)
latency change    = 0.00143969
throughput change = 0.0143498
Draining all recorded packets ...
Draining remaining packets ...
Time taken is 4542 cycles
Class 0:
Packet latency average = 17
	minimum = 7
	maximum = 33
Network latency average = 17
	minimum = 7
	maximum = 33
Slowest packet = 3175
Flit latency average = 17
	minimum = 7
	maximum = 33
Slowest flit = 3175
Fragmentation average = 0
	minimum = 0
	maximum = 0
Injected packet rate average = 0.01075
	minimum = 0.004 (at node 6)
	maximum = 0.022 (at node 10)
Accepted packet rate average = 0.010625
	minimum = 0 (at node 0)
	maximum = 0.17 (at node 9)
Injected flit rate average = 0.01075
	minimum = 0.004 (at node 6)
	maximum = 0.022 (at node 10)
Accepted flit rate average= 0.010625
	minimum = 0 (at node 0)
	maximum = 0.17 (at node 9)
Injected packet length average = 1
Accepted packet length average = 1
Total in-flight flits = 1 (0 measured)
latency change    = 1
throughput change = 1
Class 0:
Packet latency average = 17.4367
	minimum = 7
	maximum = 33
Network latency average = 17.4367
	minimum = 7
	maximum = 33
Slowest packet = 3175
Flit latency average = 17.4367
	minimum = 7
	maximum = 33
Slowest flit = 3175
Fragmentation average = 0
	minimum = 0
	maximum = 0
Injected packet rate average = 0.01
	minimum = 0.004 (at node 6)
	maximum = 0.016 (at node 7)
Accepted packet rate average = 0.009875
	minimum = 0 (at node 0)
	maximum = 0.158 (at node 9)
Injected flit rate average = 0.01
	minimum = 0.004 (at node 6)
	maximum = 0.016 (at node 7)
Accepted flit rate average= 0.009875
	minimum = 0 (at node 0)
	maximum = 0.158 (at node 9)
Injected packet length average = 1
Accepted packet length average = 1
Total in-flight flits = 2 (0 measured)
latency change    = 0.0250454
throughput change = 0.0759494
Class 0:
Packet latency average = 17.1264
	minimum = 7
	maximum = 29
Network latency average = 17.1264
	minimum = 7
	maximum = 29
Slowest packet = 3396
Flit latency average = 17.1264
	minimum = 7
	maximum = 29
Slowest flit = 3396
Fragmentation average = 0
	minimum = 0
	maximum = 0
Injected packet rate average = 0.011
	minimum = 0.004 (at node 2)
	maximum = 0.026 (at node 12)
Accepted packet rate average = 0.010875
	minimum = 0 (at node 0)
	maximum = 0.174 (at node 9)
Injected flit rate average = 0.011
	minimum = 0.004 (at node 2)
	maximum = 0.026 (at node 12)
Accepted flit rate average= 0.010875
	minimum = 0 (at node 0)
	maximum = 0.174 (at node 9)
Injected packet length average = 1
Accepted packet length average = 1
Total in-flight flits = 3 (0 measured)
latency change    = 0.0181166
throughput change = 0.091954
Warmed up ...Time used is 1500 cycles
Class 0:
Packet latency average = 17.3444
	minimum = 7
	maximum = 28
Network latency average = 17.3444
	minimum = 7
	maximum = 28
Slowest packet = 3438
Flit latency average = 17.3333
	minimum = 7
	maximum = 28
Slowest flit = 3438
Fragmentation average = 0
	minimum = 0
	maximum = 0
Injected packet rate average = 0.011375
	minimum = 0.004 (at node 1)
	maximum = 0.02 (at node 0)
Accepted packet rate average = 0.011625
	minimum = 0 (at node 0)
	maximum = 0.186 (at node 9)
Injected flit rate average = 0.011375
	minimum = 0.004 (at node 1)
	maximum = 0.02 (at node 0)
Accepted flit rate average= 0.011625
	minimum = 0 (at node 0)
	maximum = 0.186 (at node 9)
Injected packet length average = 1
Accepted packet length average = 1
Total in-flight flits = 1 (1 measured)
latency change    = 0.0125693
throughput change = 0.0645161
Class 0:
Packet latency average = 17.4286
	minimum = 7
	maximum = 28
Network latency average = 17.4286
	minimum = 7
	maximum = 28
Slowest packet = 3438
Flit latency average = 17.4211
	minimum = 7
	maximum = 28
Slowest flit = 3438
Fragmentation average = 0
	minimum = 0
	maximum = 0
Injected packet rate average = 0.0105625
	minimum = 0.005 (at node 12)
	maximum = 0.019 (at node 14)
Accepted packet rate average = 0.0106875
	minimum = 0 (at node 0)
	maximum = 0.171 (at node 9)
Injected flit rate average = 0.0105625
	minimum = 0.005 (at node 12)
	maximum = 0.019 (at node 14)
Accepted flit rate average= 0.0106875
	minimum = 0 (at node 0)
	maximum = 0.171 (at node 9)
Injected packet length average = 1
Accepted packet length average = 1
Total in-flight flits = 1 (1 measured)
latency change    = 0.00482696
throughput change = 0.0877193
Class 0:
Packet latency average = 17.2043
	minimum = 7
	maximum = 28
Network latency average = 17.2043
	minimum = 7
	maximum = 28
Slowest packet = 3438
Flit latency average = 17.2017
	minimum = 7
	maximum = 28
Slowest flit = 3438
Fragmentation average = 0
	minimum = 0
	maximum = 0
Injected packet rate average = 0.009625
	minimum = 0.00466667 (at node 12)
	maximum = 0.0146667 (at node 14)
Accepted packet rate average = 0.00970833
	minimum = 0 (at node 0)
	maximum = 0.155333 (at node 9)
Injected flit rate average = 0.009625
	minimum = 0.00466667 (at node 12)
	maximum = 0.0146667 (at node 14)
Accepted flit rate average= 0.00970833
	minimum = 0 (at node 0)
	maximum = 0.155333 (at node 9)
Injected packet length average = 1
Accepted packet length average = 1
Total in-flight flits = 1 (1 measured)
latency change    = 0.013033
throughput change = 0.100858
Class 0:
Packet latency average = 17.2297
	minimum = 7
	maximum = 30
Network latency average = 17.2297
	minimum = 7
	maximum = 30
Slowest packet = 3659
Flit latency average = 17.2274
	minimum = 7
	maximum = 30
Slowest flit = 3659
Fragmentation average = 0
	minimum = 0
	maximum = 0
Injected packet rate average = 0.00934375
	minimum = 0.0055 (at node 2)
	maximum = 0.013 (at node 11)
Accepted packet rate average = 0.00934375
	minimum = 0 (at node 0)
	maximum = 0.1495 (at node 9)
Injected flit rate average = 0.00934375
	minimum = 0.0055 (at node 2)
	maximum = 0.013 (at node 11)
Accepted flit rate average= 0.00934375
	minimum = 0 (at node 0)
	maximum = 0.1495 (at node 9)
Injected packet length average = 1
Accepted packet length average = 1
Total in-flight flits = 3 (3 measured)
latency change    = 0.00147315
throughput change = 0.039019
Class 0:
Packet latency average = 17.0997
	minimum = 7
	maximum = 30
Network latency average = 17.0997
	minimum = 7
	maximum = 30
Slowest packet = 3659
Flit latency average = 17.0989
	minimum = 7
	maximum = 30
Slowest flit = 3659
Fragmentation average = 0
	minimum = 0
	maximum = 0
Injected packet rate average = 0.00935
	minimum = 0.0056 (at node 2)
	maximum = 0.014 (at node 11)
Accepted packet rate average = 0.00935
	minimum = 0 (at node 0)
	maximum = 0.1496 (at node 9)
Injected flit rate average = 0.00935
	minimum = 0.0056 (at node 2)
	maximum = 0.014 (at node 11)
Accepted flit rate average= 0.00935
	minimum = 0 (at node 0)
	maximum = 0.1496 (at node 9)
Injected packet length average = 1
Accepted packet length average = 1
Total in-flight flits = 3 (3 measured)
latency change    = 0.00760242
throughput change = 0.000668449
Class 0:
Packet latency average = 17.1615
	minimum = 7
	maximum = 30
Network latency average = 17.1615
	minimum = 7
	maximum = 30
Slowest packet = 3659
Flit latency average = 17.1604
	minimum = 7
	maximum = 30
Slowest flit = 3659
Fragmentation average = 0
	minimum = 0
	maximum = 0
Injected packet rate average = 0.0094375
	minimum = 0.00633333 (at node 2)
	maximum = 0.0136667 (at node 11)
Accepted packet rate average = 0.00947917
	minimum = 0 (at node 0)
	maximum = 0.151667 (at node 9)
Injected flit rate average = 0.0094375
	minimum = 0.00633333 (at node 2)
	maximum = 0.0136667 (at node 11)
Accepted flit rate average= 0.00947917
	minimum = 0 (at node 0)
	maximum = 0.151667 (at node 9)
Injected packet length average = 1
Accepted packet length average = 1
Total in-flight flits = 1 (1 measured)
latency change    = 0.00359957
throughput change = 0.0136264
Draining all recorded packets ...
Draining remaining packets ...
Time taken is 4519 cycles
Class 0:
Packet latency average = 17.0946
	minimum = 7
	maximum = 27
Network latency average = 17.0946
	minimum = 7
	maximum = 27
Slowest packet = 3882
Flit latency average = 17.0946
	minimum = 7
	maximum = 27
Slowest flit = 3882
Fragmentation average = 0
	minimum = 0
	maximum = 0
Injected packet rate average = 0.0095
	minimum = 0 (at node 10)
	maximum = 0.02 (at node 14)
Accepted packet rate average = 0.00925
	minimum = 0 (at node 0)
	maximum = 0.148 (at node 9)
Injected flit rate average = 0.0095
	minimum = 0 (at node 10)
	maximum = 0.02 (at node 14)
Accepted flit rate average= 0.00925
	minimum = 0 (at node 0)
	maximum = 0.148 (at node 9)
Injected packet length average = 1
Accepted packet length average = 1
Total in-flight flits = 2 (0 measured)
latency change    = 1
throughput change = 1
Class 0:
Packet latency average = 17.2722
	minimum = 7
	maximum = 28
Network latency average = 17.2722
	minimum = 7
	maximum = 28
Slowest packet = 4003
Flit latency average = 17.2722
	minimum = 7
	maximum = 28
Slowest flit = 4003
Fragmentation average = 0
	minimum = 0
	maximum = 0
Injected packet rate average = 0.0101875
	minimum = 0.004 (at node 10)
	maximum = 0.016 (at node 14)
Accepted packet rate average = 0.009875
	minimum = 0 (at node 0)
	maximum = 0.158 (at node 9)
Injected flit rate average = 0.0101875
	minimum = 0.004 (at node 10)
	maximum = 0.016 (at node 14)
Accepted flit rate average= 0.009875
	minimum = 0 (at node 0)
	maximum = 0.158 (at node 9)
Injected packet length average = 1
Accepted packet length average = 1
Total in-flight flits = 5 (0 measured)
latency change    = 0.01028
throughput change = 0.0632911
Class 0:
Packet latency average = 17.7473
	minimum = 7
	maximum = 39
Network latency average = 17.7473
	minimum = 7
	maximum = 39
Slowest packet = 4039
Flit latency average = 17.7473
	minimum = 7
	maximum = 39
Slowest flit = 4039
Fragmentation average = 0
	minimum = 0
	maximum = 0
Injected packet rate average = 0.011
	minimum = 0.006 (at node 2)
	maximum = 0.018 (at node 0)
Accepted packet rate average = 0.011375
	minimum = 0 (at node 0)
	maximum = 0.182 (at node 9)
Injected flit rate average = 0.011
	minimum = 0.006 (at node 2)
	maximum = 0.018 (at node 0)
Accepted flit rate average= 0.011375
	minimum = 0 (at node 0)
	maximum = 0.182 (at node 9)
Injected packet length average = 1
Accepted packet length average = 1
Total in-flight flits = 2 (0 measured)
latency change    = 0.0267704
throughput change = 0.131868
Warmed up ...Time used is 1500 cycles
Class 0:
Packet latency average = 17.2576
	minimum = 7
	maximum = 28
Network latency average = 17.2576
	minimum = 7
	maximum = 28
Slowest packet = 4176
Flit latency average = 17.1765
	minimum = 7
	maximum = 28
Slowest flit = 4176
Fragmentation average = 0
	minimum = 0
	maximum = 0
Injected packet rate average = 0.00825
	minimum = 0.002 (at node 6)
	maximum = 0.014 (at node 2)
Accepted packet rate average = 0.0085
	minimum = 0 (at node 0)
	maximum = 0.136 (at node 9)
Injected flit rate average = 0.00825
	minimum = 0.002 (at node 6)
	maximum = 0.014 (at node 2)
Accepted flit rate average= 0.0085
	minimum = 0 (at node 0)
	maximum = 0.136 (at node 9)
Injected packet length average = 1
Accepted packet length average = 1
Total in-flight flits = 0 (0 measured)
latency change    = 0.0283746
throughput change = 0.338235
Class 0:
Packet latency average = 17.7586
	minimum = 7
	maximum = 37
Network latency average = 17.7586
	minimum = 7
	maximum = 37
Slowest packet = 4201
Flit latency average = 17.7143
	minimum = 7
	maximum = 37
Slowest flit = 4201
Fragmentation average = 0
	minimum = 0
	maximum = 0
Injected packet rate average = 0.0093125
	minimum = 0.005 (at node 7)
	maximum = 0.014 (at node 2)
Accepted packet rate average = 0.0091875
	minimum = 0 (at node 0)
	maximum = 0.147 (at node 9)
Injected flit rate average = 0.0093125
	minimum = 0.005 (at node 7)
	maximum = 0.014 (at node 2)
Accepted flit rate average= 0.0091875
	minimum = 0 (at node 0)
	maximum = 0.147 (at node 9)
Injected packet length average = 1
Accepted packet length average = 1
Total in-flight flits = 4 (4 measured)
latency change    = 0.0282142
throughput change = 0.0748299
Class 0:
Packet latency average = 17.3275
	minimum = 7
	maximum = 37
Network latency average = 17.3275
	minimum = 7
	maximum = 37
Slowest packet = 4201
Flit latency average = 17.303
	minimum = 7
	maximum = 37
Slowest flit = 4201
Fragmentation average = 0
	minimum = 0
	maximum = 0
Injected packet rate average = 0.00966667
	minimum = 0.006 (at node 7)
	maximum = 0.0166667 (at node 8)
Accepted packet rate average = 0.009625
	minimum = 0 (at node 0)
	maximum = 0.154 (at node 9)
Injected flit rate average = 0.00966667
	minimum = 0.006 (at node 7)
	maximum = 0.0166667 (at node 8)
Accepted flit rate average= 0.009625
	minimum = 0 (at node 0)
	maximum = 0.154 (at node 9)
Injected packet length average = 1
Accepted packet length average = 1
Total in-flight flits = 3 (3 measured)
latency change    = 0.0248801
throughput change = 0.0454545
Class 0:
Packet latency average = 17.1506
	minimum = 7
	maximum = 37
Network latency average = 17.1506
	minimum = 7
	maximum = 37
Slowest packet = 4201
Flit latency average = 17.1338
	minimum = 7
	maximum = 37
Slowest flit = 4201
Fragmentation average = 0
	minimum = 0
	maximum = 0
Injected packet rate average = 0.009875
	minimum = 0.0065 (at node 7)
	maximum = 0.014 (at node 8)
Accepted packet rate average = 0.0098125
	minimum = 0 (at node 0)
	maximum = 0.157 (at node 9)
Injected flit rate average = 0.009875
	minimum = 0.0065 (at node 7)
	maximum = 0.014 (at node 8)
Accepted flit rate average= 0.0098125
	minimum = 0 (at node 0)
	maximum = 0.157 (at node 9)
Injected packet length average = 1
Accepted packet length average = 1
Total in-flight flits = 4 (4 measured)
latency change    = 0.0103127
throughput change = 0.0191083
Class 0:
Packet latency average = 16.855
	minimum = 7
	maximum = 37
Network latency average = 16.855
	minimum = 7
	maximum = 37
Slowest packet = 4201
Flit latency average = 16.8433
	minimum = 7
	maximum = 37
Slowest flit = 4201
Fragmentation average = 0
	minimum = 0
	maximum = 0
Injected packet rate average = 0.010025
	minimum = 0.0064 (at node 7)
	maximum = 0.0156 (at node 8)
Accepted packet rate average = 0.01005
	minimum = 0 (at node 0)
	maximum = 0.1608 (at node 9)
Injected flit rate average = 0.010025
	minimum = 0.0064 (at node 7)
	maximum = 0.0156 (at node 8)
Accepted flit rate average= 0.01005
	minimum = 0 (at node 0)
	maximum = 0.1608 (at node 9)
Injected packet length average = 1
Accepted packet length average = 1
Total in-flight flits = 1 (1 measured)
latency change    = 0.0175403
throughput change = 0.0236318
Draining all recorded packets ...
Draining remaining packets ...
Time taken is 4005 cycles
Class 0:
Packet latency average = 17.3377
	minimum = 7
	maximum = 37
Network latency average = 17.3377
	minimum = 7
	maximum = 37
Slowest packet = 4579
Flit latency average = 17.3377
	minimum = 7
	maximum = 37
Slowest flit = 4579
Fragmentation average = 0
	minimum = 0
	maximum = 0
Injected packet rate average = 0.01025
	minimum = 0.002 (at node 2)
	maximum = 0.02 (at node 5)
Accepted packet rate average = 0.009625
	minimum = 0 (at node 0)
	maximum = 0.154 (at node 9)
Injected flit rate average = 0.01025
	minimum = 0.002 (at node 2)
	maximum = 0.02 (at node 5)
Accepted flit rate average= 0.009625
	minimum = 0 (at node 0)
	maximum = 0.154 (at node 9)
Injected packet length average = 1
Accepted packet length average = 1
Total in-flight flits = 5 (0 measured)
latency change    = 1
throughput change = 1
Class 0:
Packet latency average = 17.0118
	minimum = 7
	maximum = 37
Network latency average = 17.0118
	minimum = 7
	maximum = 37
Slowest packet = 4579
Flit latency average = 17.0118
	minimum = 7
	maximum = 37
Slowest flit = 4579
Fragmentation average = 0
	minimum = 0
	maximum = 0
Injected packet rate average = 0.0108125
	minimum = 0.005 (at node 14)
	maximum = 0.02 (at node 5)
Accepted packet rate average = 0.010625
	minimum = 0 (at node 0)
	maximum = 0.17 (at node 9)
Injected flit rate average = 0.0108125
	minimum = 0.005 (at node 14)
	maximum = 0.02 (at node 5)
Accepted flit rate average= 0.010625
	minimum = 0 (at node 0)
	maximum = 0.17 (at node 9)
Injected packet length average = 1
Accepted packet length average = 1
Total in-flight flits = 3 (0 measured)
latency change    = 0.0191572
throughput change = 0.0941176
Class 0:
Packet latency average = 17.2254
	minimum = 7
	maximum = 35
Network latency average = 17.2254
	minimum = 7
	maximum = 35
Slowest packet = 4724
Flit latency average = 17.2254
	minimum = 7
	maximum = 35
Slowest flit = 4724
Fragmentation average = 0
	minimum = 0
	maximum = 0
Injected packet rate average = 0.008875
	minimum = 0.002 (at node 0)
	maximum = 0.018 (at node 12)
Accepted packet rate average = 0.008875
	minimum = 0 (at node 0)
	maximum = 0.142 (at node 9)
Injected flit rate average = 0.008875
	minimum = 0.002 (at node 0)
	maximum = 0.018 (at node 12)
Accepted flit rate average= 0.008875
	minimum = 0 (at node 0)
	maximum = 0.142 (at node 9)
Injected packet length average = 1
Accepted packet length average = 1
Total in-flight flits = 3 (0 measured)
latency change    = 0.0123996
throughput change = 0.197183
Warmed up ...Time used is 1500 cycles
Class 0:
Packet latency average = 17.6232
	minimum = 7
	maximum = 27
Network latency average = 17.6232
	minimum = 7
	maximum = 27
Slowest packet = 4769
Flit latency average = 17.75
	minimum = 7
	maximum = 27
Slowest flit = 4758
Fragmentation average = 0
	minimum = 0
	maximum = 0
Injected packet rate average = 0.008875
	minimum = 0.002 (at node 3)
	maximum = 0.016 (at node 2)
Accepted packet rate average = 0.009
	minimum = 0 (at node 0)
	maximum = 0.144 (at node 9)
Injected flit rate average = 0.008875
	minimum = 0.002 (at node 3)
	maximum = 0.016 (at node 2)
Accepted flit rate average= 0.009
	minimum = 0 (at node 0)
	maximum = 0.144 (at node 9)
Injected packet length average = 1
Accepted packet length average = 1
Total in-flight flits = 2 (2 measured)
latency change    = 0.0225746
throughput change = 0.0138889
Class 0:
Packet latency average = 18.0065
	minimum = 7
	maximum = 33
Network latency average = 18.0065
	minimum = 7
	maximum = 33
Slowest packet = 4870
Flit latency average = 18.057
	minimum = 7
	maximum = 33
Slowest flit = 4870
Fragmentation average = 0
	minimum = 0
	maximum = 0
Injected packet rate average = 0.01
	minimum = 0.004 (at node 9)
	maximum = 0.017 (at node 0)
Accepted packet rate average = 0.009875
	minimum = 0 (at node 0)
	maximum = 0.158 (at node 9)
Injected flit rate average = 0.01
	minimum = 0.004 (at node 9)
	maximum = 0.017 (at node 0)
Accepted flit rate average= 0.009875
	minimum = 0 (at node 0)
	maximum = 0.158 (at node 9)
Injected packet length average = 1
Accepted packet length average = 1
Total in-flight flits = 5 (5 measured)
latency change    = 0.0212848
throughput change = 0.0886076
Class 0:
Packet latency average = 17.6567
	minimum = 7
	maximum = 33
Network latency average = 17.6567
	minimum = 7
	maximum = 33
Slowest packet = 4870
Flit latency average = 17.6949
	minimum = 7
	maximum = 33
Slowest flit = 4870
Fragmentation average = 0
	minimum = 0
	maximum = 0
Injected packet rate average = 0.00991667
	minimum = 0.006 (at node 3)
	maximum = 0.014 (at node 10)
Accepted packet rate average = 0.00983333
	minimum = 0 (at node 0)
	maximum = 0.157333 (at node 9)
Injected flit rate average = 0.00991667
	minimum = 0.006 (at node 3)
	maximum = 0.014 (at node 10)
Accepted flit rate average= 0.00983333
	minimum = 0 (at node 0)
	maximum = 0.157333 (at node 9)
Injected packet length average = 1
Accepted packet length average = 1
Total in-flight flits = 5 (5 measured)
latency change    = 0.0198112
throughput change = 0.00423729
Class 0:
Packet latency average = 17.7003
	minimum = 7
	maximum = 37
Network latency average = 17.7003
	minimum = 7
	maximum = 37
Slowest packet = 5070
Flit latency average = 17.7281
	minimum = 7
	maximum = 37
Slowest flit = 5070
Fragmentation average = 0
	minimum = 0
	maximum = 0
Injected packet rate average = 0.0100625
	minimum = 0.0065 (at node 6)
	maximum = 0.014 (at node 10)
Accepted packet rate average = 0.01
	minimum = 0 (at node 0)
	maximum = 0.16 (at node 9)
Injected flit rate average = 0.0100625
	minimum = 0.0065 (at node 6)
	maximum = 0.014 (at node 10)
Accepted flit rate average= 0.01
	minimum = 0 (at node 0)
	maximum = 0.16 (at node 9)
Injected packet length average = 1
Accepted packet length average = 1
Total in-flight flits = 5 (5 measured)
latency change    = 0.0024668
throughput change = 0.0166667
Class 0:
Packet latency average = 17.6272
	minimum = 7
	maximum = 37
Network latency average = 17.6272
	minimum = 7
	maximum = 37
Slowest packet = 5070
Flit latency average = 17.65
	minimum = 7
	maximum = 37
Slowest flit = 5070
Fragmentation average = 0
	minimum = 0
	maximum = 0
Injected packet rate average = 0.010025
	minimum = 0.0076 (at node 7)
	maximum = 0.0136 (at node 15)
Accepted packet rate average = 0.01
	minimum = 0 (at node 0)
	maximum = 0.16 (at node 9)
Injected flit rate average = 0.010025
	minimum = 0.0076 (at node 7)
	maximum = 0.0136 (at node 15)
Accepted flit rate average= 0.01
	minimum = 0 (at node 0)
	maximum = 0.16 (at node 9)
Injected packet length average = 1
Accepted packet length average = 1
Total in-flight flits = 4 (4 measured)
latency change    = 0.00414765
throughput change = 0
Draining all recorded packets ...
Draining remaining packets ...
Time taken is 4025 cycles
Class 0:
Packet latency average = 17.6479
	minimum = 7
	maximum = 28
Network latency average = 17.6479
	minimum = 7
	maximum = 28
Slowest packet = 5182
Flit latency average = 17.6479
	minimum = 7
	maximum = 28
Slowest flit = 5182
Fragmentation average = 0
	minimum = 0
	maximum = 0
Injected packet rate average = 0.009
	minimum = 0.004 (at node 2)
	maximum = 0.016 (at node 3)
Accepted packet rate average = 0.008875
	minimum = 0 (at node 0)
	maximum = 0.142 (at node 9)
Injected flit rate average = 0.009
	minimum = 0.004 (at node 2)
	maximum = 0.016 (at node 3)
Accepted flit rate average= 0.008875
	minimum = 0 (at node 0)
	maximum = 0.142 (at node 9)
Injected packet length average = 1
Accepted packet length average = 1
Total in-flight flits = 1 (0 measured)
latency change    = 1
throughput change = 1
Class 0:
Packet latency average = 17.2357
	minimum = 7
	maximum = 28
Network latency average = 17.2357
	minimum = 7
	maximum = 28
Slowest packet = 5182
Flit latency average = 17.2357
	minimum = 7
	maximum = 28
Slowest flit = 5182
Fragmentation average = 0
	minimum = 0
	maximum = 0
Injected packet rate average = 0.0099375
	minimum = 0.006 (at node 0)
	maximum = 0.017 (at node 12)
Accepted packet rate average = 0.0098125
	minimum = 0 (at node 0)
	maximum = 0.157 (at node 9)
Injected flit rate average = 0.0099375
	minimum = 0.006 (at node 0)
	maximum = 0.017 (at node 12)
Accepted flit rate average= 0.0098125
	minimum = 0 (at node 0)
	maximum = 0.157 (at node 9)
Injected packet length average = 1
Accepted packet length average = 1
Total in-flight flits = 2 (0 measured)
latency change    = 0.0239166
throughput change = 0.0955414
Class 0:
Packet latency average = 17.7564
	minimum = 7
	maximum = 30
Network latency average = 17.7564
	minimum = 7
	maximum = 30
Slowest packet = 5346
Flit latency average = 17.7564
	minimum = 7
	maximum = 30
Slowest flit = 5346
Fragmentation average = 0
	minimum = 0
	maximum = 0
Injected packet rate average = 0.009625
	minimum = 0.004 (at node 1)
	maximum = 0.018 (at node 8)
Accepted packet rate average = 0.00975
	minimum = 0 (at node 0)
	maximum = 0.156 (at node 9)
Injected flit rate average = 0.009625
	minimum = 0.004 (at node 1)
	maximum = 0.018 (at node 8)
Accepted flit rate average= 0.00975
	minimum = 0 (at node 0)
	maximum = 0.156 (at node 9)
Injected packet length average = 1
Accepted packet length average = 1
Total in-flight flits = 1 (0 measured)
latency change    = 0.029327
throughput change = 0.00641026
Warmed up ...Time used is 1500 cycles
Class 0:
Packet latency average = 16.8548
	minimum = 7
	maximum = 32
Network latency average = 16.8548
	minimum = 7
	maximum = 32
Slowest packet = 5424
Flit latency average = 16.9365
	minimum = 7
	maximum = 32
Slowest flit = 5424
Fragmentation average = 0
	minimum = 0
	maximum = 0
Injected packet rate average = 0.008
	minimum = 0.004 (at node 0)
	maximum = 0.012 (at node 7)
Accepted packet rate average = 0.007875
	minimum = 0 (at node 0)
	maximum = 0.126 (at node 9)
Injected flit rate average = 0.008
	minimum = 0.004 (at node 0)
	maximum = 0.012 (at node 7)
Accepted flit rate average= 0.007875
	minimum = 0 (at node 0)
	maximum = 0.126 (at node 9)
Injected packet length average = 1
Accepted packet length average = 1
Total in-flight flits = 2 (2 measured)
latency change    = 0.0534904
throughput change = 0.238095
Class 0:
Packet latency average = 16.6794
	minimum = 7
	maximum = 32
Network latency average = 16.6794
	minimum = 7
	maximum = 32
Slowest packet = 5424
Flit latency average = 16.7197
	minimum = 7
	maximum = 32
Slowest flit = 5424
Fragmentation average = 0
	minimum = 0
	maximum = 0
Injected packet rate average = 0.0085
	minimum = 0.004 (at node 11)
	maximum = 0.014 (at node 12)
Accepted packet rate average = 0.00825
	minimum = 0 (at node 0)
	maximum = 0.132 (at node 9)
Injected flit rate average = 0.0085
	minimum = 0.004 (at node 11)
	maximum = 0.014 (at node 12)
Accepted flit rate average= 0.00825
	minimum = 0 (at node 0)
	maximum = 0.132 (at node 9)
Injected packet length average = 1
Accepted packet length average = 1
Total in-flight flits = 5 (5 measured)
latency change    = 0.0105189
throughput change = 0.0454545
Class 0:
Packet latency average = 16.5146
	minimum = 7
	maximum = 32
Network latency average = 16.5146
	minimum = 7
	maximum = 32
Slowest packet = 5424
Flit latency average = 16.5411
	minimum = 7
	maximum = 32
Slowest flit = 5424
Fragmentation average = 0
	minimum = 0
	maximum = 0
Injected packet rate average = 0.00870833
	minimum = 0.00333333 (at node 0)
	maximum = 0.0133333 (at node 13)
Accepted packet rate average = 0.008625
	minimum = 0 (at node 0)
	maximum = 0.138 (at node 9)
Injected flit rate average = 0.00870833
	minimum = 0.00333333 (at node 0)
	maximum = 0.0133333 (at node 13)
Accepted flit rate average= 0.008625
	minimum = 0 (at node 0)
	maximum = 0.138 (at node 9)
Injected packet length average = 1
Accepted packet length average = 1
Total in-flight flits = 3 (3 measured)
latency change    = 0.00998066
throughput change = 0.0434783
Class 0:
Packet latency average = 16.9401
	minimum = 7
	maximum = 32
Network latency average = 16.9401
	minimum = 7
	maximum = 32
Slowest packet = 5424
Flit latency average = 16.9579
	minimum = 7
	maximum = 32
Slowest flit = 5424
Fragmentation average = 0
	minimum = 0
	maximum = 0
Injected packet rate average = 0.009
	minimum = 0.005 (at node 0)
	maximum = 0.0135 (at node 6)
Accepted packet rate average = 0.00890625
	minimum = 0 (at node 0)
	maximum = 0.1425 (at node 9)
Injected flit rate average = 0.009
	minimum = 0.005 (at node 0)
	maximum = 0.0135 (at node 6)
Accepted flit rate average= 0.00890625
	minimum = 0 (at node 0)
	maximum = 0.1425 (at node 9)
Injected packet length average = 1
Accepted packet length average = 1
Total in-flight flits = 4 (4 measured)
latency change    = 0.0251224
throughput change = 0.0315789
Draining all recorded packets ...
Draining remaining packets ...
Time taken is 3546 cycles
Class 0:
Packet latency average = 16.8182
	minimum = 7
	maximum = 30
Network latency average = 16.8182
	minimum = 7
	maximum = 30
Slowest packet = 5726
Flit latency average = 16.8182
	minimum = 7
	maximum = 30
Slowest flit = 5726
Fragmentation average = 0
	minimum = 0
	maximum = 0
Injected packet rate average = 0.0085
	minimum = 0.002 (at node 12)
	maximum = 0.016 (at node 0)
Accepted packet rate average = 0.00825
	minimum = 0 (at node 0)
	maximum = 0.132 (at node 9)
Injected flit rate average = 0.0085
	minimum = 0.002 (at node 12)
	maximum = 0.016 (at node 0)
Accepted flit rate average= 0.00825
	minimum = 0 (at node 0)
	maximum = 0.132 (at node 9)
Injected packet length average = 1
Accepted packet length average = 1
Total in-flight flits = 2 (0 measured)
latency change    = 1
throughput change = 1
Class 0:
Packet latency average = 17.5894
	minimum = 7
	maximum = 31
Network latency average = 17.5894
	minimum = 7
	maximum = 31
Slowest packet = 5824
Flit latency average = 17.5894
	minimum = 7
	maximum = 31
Slowest flit = 5824
Fragmentation average = 0
	minimum = 0
	maximum = 0
Injected packet rate average = 0.009875
	minimum = 0.005 (at node 11)
	maximum = 0.014 (at node 4)
Accepted packet rate average = 0.0094375
	minimum = 0 (at node 0)
	maximum = 0.151 (at node 9)
Injected flit rate average = 0.009875
	minimum = 0.005 (at node 11)
	maximum = 0.014 (at node 4)
Accepted flit rate average= 0.0094375
	minimum = 0 (at node 0)
	maximum = 0.151 (at node 9)
Injected packet length average = 1
Accepted packet length average = 1
Total in-flight flits = 7 (0 measured)
latency change    = 0.0438458
throughput change = 0.125828
Class 0:
Packet latency average = 18.589
	minimum = 7
	maximum = 45
Network latency average = 18.589
	minimum = 7
	maximum = 45
Slowest packet = 5848
Flit latency average = 18.589
	minimum = 7
	maximum = 45
Slowest flit = 5848
Fragmentation average = 0
	minimum = 0
	maximum = 0
Injected packet rate average = 0.00875
	minimum = 0.002 (at node 9)
	maximum = 0.02 (at node 12)
Accepted packet rate average = 0.009125
	minimum = 0 (at node 0)
	maximum = 0.146 (at node 9)
Injected flit rate average = 0.00875
	minimum = 0.002 (at node 9)
	maximum = 0.02 (at node 12)
Accepted flit rate average= 0.009125
	minimum = 0 (at node 0)
	maximum = 0.146 (at node 9)
Injected packet length average = 1
Accepted packet length average = 1
Total in-flight flits = 4 (0 measured)
latency change    = 0.0537756
throughput change = 0.0342466
Warmed up ...Time used is 1500 cycles
Class 0:
Packet latency average = 17.9157
	minimum = 7
	maximum = 31
Network latency average = 17.9157
	minimum = 7
	maximum = 31
Slowest packet = 5973
Flit latency average = 18
	minimum = 7
	maximum = 31
Slowest flit = 5973
Fragmentation average = 0
	minimum = 0
	maximum = 0
Injected packet rate average = 0.01075
	minimum = 0.004 (at node 7)
	maximum = 0.018 (at node 0)
Accepted packet rate average = 0.010875
	minimum = 0 (at node 0)
	maximum = 0.174 (at node 9)
Injected flit rate average = 0.01075
	minimum = 0.004 (at node 7)
	maximum = 0.018 (at node 0)
Accepted flit rate average= 0.010875
	minimum = 0 (at node 0)
	maximum = 0.174 (at node 9)
Injected packet length average = 1
Accepted packet length average = 1
Total in-flight flits = 3 (3 measured)
latency change    = 0.037586
throughput change = 0.16092
Class 0:
Packet latency average = 17.3793
	minimum = 7
	maximum = 31
Network latency average = 17.3793
	minimum = 7
	maximum = 31
Slowest packet = 5973
Flit latency average = 17.4326
	minimum = 7
	maximum = 31
Slowest flit = 5973
Fragmentation average = 0
	minimum = 0
	maximum = 0
Injected packet rate average = 0.0110625
	minimum = 0.006 (at node 7)
	maximum = 0.016 (at node 2)
Accepted packet rate average = 0.011125
	minimum = 0 (at node 0)
	maximum = 0.178 (at node 9)
Injected flit rate average = 0.0110625
	minimum = 0.006 (at node 7)
	maximum = 0.016 (at node 2)
Accepted flit rate average= 0.011125
	minimum = 0 (at node 0)
	maximum = 0.178 (at node 9)
Injected packet length average = 1
Accepted packet length average = 1
Total in-flight flits = 3 (3 measured)
latency change    = 0.0308615
throughput change = 0.0224719
Class 0:
Packet latency average = 17.2471
	minimum = 7
	maximum = 34
Network latency average = 17.2471
	minimum = 7
	maximum = 34
Slowest packet = 6129
Flit latency average = 17.2857
	minimum = 7
	maximum = 34
Slowest flit = 6129
Fragmentation average = 0
	minimum = 0
	maximum = 0
Injected packet rate average = 0.0106667
	minimum = 0.00666667 (at node 1)
	maximum = 0.014 (at node 11)
Accepted packet rate average = 0.0107917
	minimum = 0 (at node 0)
	maximum = 0.172667 (at node 9)
Injected flit rate average = 0.0106667
	minimum = 0.00666667 (at node 1)
	maximum = 0.014 (at node 11)
Accepted flit rate average= 0.0107917
	minimum = 0 (at node 0)
	maximum = 0.172667 (at node 9)
Injected packet length average = 1
Accepted packet length average = 1
Total in-flight flits = 1 (1 measured)
latency change    = 0.00766806
throughput change = 0.030888
Class 0:
Packet latency average = 17.5108
	minimum = 7
	maximum = 34
Network latency average = 17.5108
	minimum = 7
	maximum = 34
Slowest packet = 6129
Flit latency average = 17.538
	minimum = 7
	maximum = 34
Slowest flit = 6129
Fragmentation average = 0
	minimum = 0
	maximum = 0
Injected packet rate average = 0.0102813
	minimum = 0.0085 (at node 1)
	maximum = 0.0135 (at node 6)
Accepted packet rate average = 0.0102813
	minimum = 0 (at node 0)
	maximum = 0.1645 (at node 9)
Injected flit rate average = 0.0102813
	minimum = 0.0085 (at node 1)
	maximum = 0.0135 (at node 6)
Accepted flit rate average= 0.0102813
	minimum = 0 (at node 0)
	maximum = 0.1645 (at node 9)
Injected packet length average = 1
Accepted packet length average = 1
Total in-flight flits = 4 (4 measured)
latency change    = 0.0150599
throughput change = 0.0496454
Draining all recorded packets ...
Draining remaining packets ...
Time taken is 3542 cycles
Class 0:
Packet latency average = 17.5325
	minimum = 7
	maximum = 35
Network latency average = 17.5325
	minimum = 7
	maximum = 35
Slowest packet = 6314
Flit latency average = 17.5325
	minimum = 7
	maximum = 35
Slowest flit = 6314
Fragmentation average = 0
	minimum = 0
	maximum = 0
Injected packet rate average = 0.010125
	minimum = 0.002 (at node 5)
	maximum = 0.016 (at node 4)
Accepted packet rate average = 0.009625
	minimum = 0 (at node 0)
	maximum = 0.154 (at node 9)
Injected flit rate average = 0.010125
	minimum = 0.002 (at node 5)
	maximum = 0.016 (at node 4)
Accepted flit rate average= 0.009625
	minimum = 0 (at node 0)
	maximum = 0.154 (at node 9)
Injected packet length average = 1
Accepted packet length average = 1
Total in-flight flits = 4 (0 measured)
latency change    = 1
throughput change = 1
Class 0:
Packet latency average = 17.878
	minimum = 7
	maximum = 35
Network latency average = 17.878
	minimum = 7
	maximum = 35
Slowest packet = 6314
Flit latency average = 17.878
	minimum = 7
	maximum = 35
Slowest flit = 6314
Fragmentation average = 0
	minimum = 0
	maximum = 0
Injected packet rate average = 0.0105625
	minimum = 0.007 (at node 8)
	maximum = 0.02 (at node 2)
Accepted packet rate average = 0.01025
	minimum = 0 (at node 0)
	maximum = 0.164 (at node 9)
Injected flit rate average = 0.0105625
	minimum = 0.007 (at node 8)
	maximum = 0.02 (at node 2)
Accepted flit rate average= 0.01025
	minimum = 0 (at node 0)
	maximum = 0.164 (at node 9)
Injected packet length average = 1
Accepted packet length average = 1
Total in-flight flits = 5 (0 measured)
latency change    = 0.0193299
throughput change = 0.0609756
Class 0:
Packet latency average = 17.6429
	minimum = 7
	maximum = 32
Network latency average = 17.6429
	minimum = 7
	maximum = 32
Slowest packet = 6441
Flit latency average = 17.6429
	minimum = 7
	maximum = 32
Slowest flit = 6441
Fragmentation average = 0
	minimum = 0
	maximum = 0
Injected packet rate average = 0.01
	minimum = 0 (at node 5)
	maximum = 0.02 (at node 10)
Accepted packet rate average = 0.0105
	minimum = 0 (at node 0)
	maximum = 0.168 (at node 9)
Injected flit rate average = 0.01
	minimum = 0 (at node 5)
	maximum = 0.02 (at node 10)
Accepted flit rate average= 0.0105
	minimum = 0 (at node 0)
	maximum = 0.168 (at node 9)
Injected packet length average = 1
Accepted packet length average = 1
Total in-flight flits = 1 (0 measured)
latency change    = 0.0133307
throughput change = 0.0238095
Warmed up ...Time used is 1500 cycles
Class 0:
Packet latency average = 16.8941
	minimum = 7
	maximum = 28
Network latency average = 16.8941
	minimum = 7
	maximum = 28
Slowest packet = 6551
Flit latency average = 16.8953
	minimum = 7
	maximum = 28
Slowest flit = 6551
Fragmentation average = 0
	minimum = 0
	maximum = 0
Injected packet rate average = 0.011
	minimum = 0.002 (at node 6)
	maximum = 0.02 (at node 2)
Accepted packet rate average = 0.01075
	minimum = 0 (at node 0)
	maximum = 0.172 (at node 9)
Injected flit rate average = 0.011
	minimum = 0.002 (at node 6)
	maximum = 0.02 (at node 2)
Accepted flit rate average= 0.01075
	minimum = 0 (at node 0)
	maximum = 0.172 (at node 9)
Injected packet length average = 1
Accepted packet length average = 1
Total in-flight flits = 3 (3 measured)
latency change    = 0.0443195
throughput change = 0.0232558
Class 0:
Packet latency average = 17.052
	minimum = 7
	maximum = 29
Network latency average = 17.052
	minimum = 7
	maximum = 29
Slowest packet = 6631
Flit latency average = 17.0517
	minimum = 7
	maximum = 29
Slowest flit = 6631
Fragmentation average = 0
	minimum = 0
	maximum = 0
Injected packet rate average = 0.0109375
	minimum = 0.005 (at node 6)
	maximum = 0.016 (at node 4)
Accepted packet rate average = 0.010875
	minimum = 0 (at node 0)
	maximum = 0.174 (at node 9)
Injected flit rate average = 0.0109375
	minimum = 0.005 (at node 6)
	maximum = 0.016 (at node 4)
Accepted flit rate average= 0.010875
	minimum = 0 (at node 0)
	maximum = 0.174 (at node 9)
Injected packet length average = 1
Accepted packet length average = 1
Total in-flight flits = 2 (2 measured)
latency change    = 0.00926022
throughput change = 0.0114943
Class 0:
Packet latency average = 17.1646
	minimum = 7
	maximum = 29
Network latency average = 17.1646
	minimum = 7
	maximum = 29
Slowest packet = 6631
Flit latency average = 17.1639
	minimum = 7
	maximum = 29
Slowest flit = 6631
Fragmentation average = 0
	minimum = 0
	maximum = 0
Injected packet rate average = 0.01025
	minimum = 0.00466667 (at node 6)
	maximum = 0.0133333 (at node 2)
Accepted packet rate average = 0.0101667
	minimum = 0 (at node 0)
	maximum = 0.162667 (at node 9)
Injected flit rate average = 0.01025
	minimum = 0.00466667 (at node 6)
	maximum = 0.0133333 (at node 2)
Accepted flit rate average= 0.0101667
	minimum = 0 (at node 0)
	maximum = 0.162667 (at node 9)
Injected packet length average = 1
Accepted packet length average = 1
Total in-flight flits = 3 (3 measured)
latency change    = 0.00655919
throughput change = 0.0696721
Class 0:
Packet latency average = 17.4149
	minimum = 7
	maximum = 39
Network latency average = 17.4149
	minimum = 7
	maximum = 39
Slowest packet = 6774
Flit latency average = 17.4136
	minimum = 7
	maximum = 39
Slowest flit = 6774
Fragmentation average = 0
	minimum = 0
	maximum = 0
Injected packet rate average = 0.0102813
	minimum = 0.0065 (at node 0)
	maximum = 0.014 (at node 4)
Accepted packet rate average = 0.010125
	minimum = 0 (at node 0)
	maximum = 0.162 (at node 9)
Injected flit rate average = 0.0102813
	minimum = 0.0065 (at node 0)
	maximum = 0.014 (at node 4)
Accepted flit rate average= 0.010125
	minimum = 0 (at node 0)
	maximum = 0.162 (at node 9)
Injected packet length average = 1
Accepted packet length average = 1
Total in-flight flits = 6 (6 measured)
latency change    = 0.01437
throughput change = 0.00411523
Class 0:
Packet latency average = 17.5263
	minimum = 7
	maximum = 39
Network latency average = 17.5263
	minimum = 7
	maximum = 39
Slowest packet = 6774
Flit latency average = 17.525
	minimum = 7
	maximum = 39
Slowest flit = 6774
Fragmentation average = 0
	minimum = 0
	maximum = 0
Injected packet rate average = 0.01005
	minimum = 0.0068 (at node 6)
	maximum = 0.0128 (at node 4)
Accepted packet rate average = 0.01
	minimum = 0 (at node 0)
	maximum = 0.16 (at node 9)
Injected flit rate average = 0.01005
	minimum = 0.0068 (at node 6)
	maximum = 0.0128 (at node 4)
Accepted flit rate average= 0.01
	minimum = 0 (at node 0)
	maximum = 0.16 (at node 9)
Injected packet length average = 1
Accepted packet length average = 1
Total in-flight flits = 3 (3 measured)
latency change    = 0.0063593
throughput change = 0.0125
Class 0:
Packet latency average = 17.4374
	minimum = 7
	maximum = 39
Network latency average = 17.4374
	minimum = 7
	maximum = 39
Slowest packet = 6774
Flit latency average = 17.4365
	minimum = 7
	maximum = 39
Slowest flit = 6774
Fragmentation average = 0
	minimum = 0
	maximum = 0
Injected packet rate average = 0.0102708
	minimum = 0.00833333 (at node 6)
	maximum = 0.0136667 (at node 4)
Accepted packet rate average = 0.0101667
	minimum = 0 (at node 0)
	maximum = 0.162667 (at node 9)
Injected flit rate average = 0.0102708
	minimum = 0.00833333 (at node 6)
	maximum = 0.0136667 (at node 4)
Accepted flit rate average= 0.0101667
	minimum = 0 (at node 0)
	maximum = 0.162667 (at node 9)
Injected packet length average = 1
Accepted packet length average = 1
Total in-flight flits = 6 (6 measured)
latency change    = 0.00510078
throughput change = 0.0163934
Draining all recorded packets ...
Draining remaining packets ...
Time taken is 4525 cycles
Class 0:
Packet latency average = 17.4474
	minimum = 7
	maximum = 34
Network latency average = 17.4474
	minimum = 7
	maximum = 34
Slowest packet = 7019
Flit latency average = 17.4474
	minimum = 7
	maximum = 34
Slowest flit = 7019
Fragmentation average = 0
	minimum = 0
	maximum = 0
Injected packet rate average = 0.009625
	minimum = 0.002 (at node 5)
	maximum = 0.02 (at node 8)
Accepted packet rate average = 0.0095
	minimum = 0 (at node 0)
	maximum = 0.152 (at node 9)
Injected flit rate average = 0.009625
	minimum = 0.002 (at node 5)
	maximum = 0.02 (at node 8)
Accepted flit rate average= 0.0095
	minimum = 0 (at node 0)
	maximum = 0.152 (at node 9)
Injected packet length average = 1
Accepted packet length average = 1
Total in-flight flits = 1 (0 measured)
latency change    = 1
throughput change = 1
Class 0:
Packet latency average = 17.0637
	minimum = 7
	maximum = 34
Network latency average = 17.0637
	minimum = 7
	maximum = 34
Slowest packet = 7019
Flit latency average = 17.0637
	minimum = 7
	maximum = 34
Slowest flit = 7019
Fragmentation average = 0
	minimum = 0
	maximum = 0
Injected packet rate average = 0.0101875
	minimum = 0.006 (at node 6)
	maximum = 0.017 (at node 8)
Accepted packet rate average = 0.0098125
	minimum = 0 (at node 0)
	maximum = 0.157 (at node 9)
Injected flit rate average = 0.0101875
	minimum = 0.006 (at node 6)
	maximum = 0.017 (at node 8)
Accepted flit rate average= 0.0098125
	minimum = 0 (at node 0)
	maximum = 0.157 (at node 9)
Injected packet length average = 1
Accepted packet length average = 1
Total in-flight flits = 6 (0 measured)
latency change    = 0.0224848
throughput change = 0.0318471
Class 0:
Packet latency average = 17.1705
	minimum = 7
	maximum = 29
Network latency average = 17.1705
	minimum = 7
	maximum = 29
Slowest packet = 7180
Flit latency average = 17.1705
	minimum = 7
	maximum = 29
Slowest flit = 7180
Fragmentation average = 0
	minimum = 0
	maximum = 0
Injected packet rate average = 0.011
	minimum = 0.004 (at node 6)
	maximum = 0.02 (at node 3)
Accepted packet rate average = 0.011
	minimum = 0 (at node 0)
	maximum = 0.176 (at node 9)
Injected flit rate average = 0.011
	minimum = 0.004 (at node 6)
	maximum = 0.02 (at node 3)
Accepted flit rate average= 0.011
	minimum = 0 (at node 0)
	maximum = 0.176 (at node 9)
Injected packet length average = 1
Accepted packet length average = 1
Total in-flight flits = 6 (0 measured)
latency change    = 0.00621767
throughput change = 0.107955
Warmed up ...Time used is 1500 cycles
Class 0:
Packet latency average = 18.9417
	minimum = 7
	maximum = 35
Network latency average = 18.9417
	minimum = 7
	maximum = 35
Slowest packet = 7302
Flit latency average = 19.0642
	minimum = 7
	maximum = 35
Slowest flit = 7302
Fragmentation average = 0
	minimum = 0
	maximum = 0
Injected packet rate average = 0.013125
	minimum = 0.004 (at node 12)
	maximum = 0.022 (at node 2)
Accepted packet rate average = 0.013625
	minimum = 0 (at node 0)
	maximum = 0.218 (at node 9)
Injected flit rate average = 0.013125
	minimum = 0.004 (at node 12)
	maximum = 0.022 (at node 2)
Accepted flit rate average= 0.013625
	minimum = 0 (at node 0)
	maximum = 0.218 (at node 9)
Injected packet length average = 1
Accepted packet length average = 1
Total in-flight flits = 2 (2 measured)
latency change    = 0.0935127
throughput change = 0.192661
Class 0:
Packet latency average = 18.1215
	minimum = 7
	maximum = 36
Network latency average = 18.1215
	minimum = 7
	maximum = 36
Slowest packet = 7370
Flit latency average = 18.2193
	minimum = 7
	maximum = 36
Slowest flit = 7370
Fragmentation average = 0
	minimum = 0
	maximum = 0
Injected packet rate average = 0.0114375
	minimum = 0.007 (at node 8)
	maximum = 0.017 (at node 7)
Accepted packet rate average = 0.0116875
	minimum = 0 (at node 0)
	maximum = 0.187 (at node 9)
Injected flit rate average = 0.0114375
	minimum = 0.007 (at node 8)
	maximum = 0.017 (at node 7)
Accepted flit rate average= 0.0116875
	minimum = 0 (at node 0)
	maximum = 0.187 (at node 9)
Injected packet length average = 1
Accepted packet length average = 1
Total in-flight flits = 2 (2 measured)
latency change    = 0.0452611
throughput change = 0.165775
Class 0:
Packet latency average = 17.7689
	minimum = 7
	maximum = 36
Network latency average = 17.7689
	minimum = 7
	maximum = 36
Slowest packet = 7370
Flit latency average = 17.8482
	minimum = 7
	maximum = 36
Slowest flit = 7370
Fragmentation average = 0
	minimum = 0
	maximum = 0
Injected packet rate average = 0.0105
	minimum = 0.00733333 (at node 13)
	maximum = 0.014 (at node 7)
Accepted packet rate average = 0.0107083
	minimum = 0 (at node 0)
	maximum = 0.171333 (at node 9)
Injected flit rate average = 0.0105
	minimum = 0.00733333 (at node 13)
	maximum = 0.014 (at node 7)
[...]
Total in-flight flits = 2 (2 measured)
latency change    = 0.0150926
throughput change = 0.00976562
Class 0:
Packet latency average = 17.3884
	minimum = 7
	maximum = 30
Network latency average = 17.3884
	minimum = 7
	maximum = 30
Slowest packet = 30299
Flit latency average = 17.372
	minimum = 7
	maximum = 30
Slowest flit = 30299
Fragmentation average = 0
	minimum = 0
	maximum = 0
Injected packet rate average = 0.0104063
	minimum = 0.0075 (at node 11)
	maximum = 0.015 (at node 2)
Accepted packet rate average = 0.01025
	minimum = 0 (at node 0)
	maximum = 0.164 (at node 9)
Injected flit rate average = 0.0104063
	minimum = 0.0075 (at node 11)
	maximum = 0.015 (at node 2)
Accepted flit rate average= 0.01025
	minimum = 0 (at node 0)
	maximum = 0.164 (at node 9)
Injected packet length average = 1
Accepted packet length average = 1
Total in-flight flits = 6 (6 measured)
latency change    = 0.00224701
throughput change = 0.0406504
Draining all recorded packets ...
Draining remaining packets ...
Time taken is 3530 cycles
Class 0:
Packet latency average = 18.8718
	minimum = 7
	maximum = 41
Network latency average = 18.8718
	minimum = 7
	maximum = 41
Slowest packet = 30522
Flit latency average = 18.8718
	minimum = 7
	maximum = 41
Slowest flit = 30522
Fragmentation average = 0
	minimum = 0
	maximum = 0
Injected packet rate average = 0.01025
	minimum = 0 (at node 8)
	maximum = 0.018 (at node 3)
Accepted packet rate average = 0.00975
	minimum = 0 (at node 0)
	maximum = 0.156 (at node 9)
Injected flit rate average = 0.01025
	minimum = 0 (at node 8)
	maximum = 0.018 (at node 3)
Accepted flit rate average= 0.00975
	minimum = 0 (at node 0)
	maximum = 0.156 (at node 9)
Injected packet length average = 1
Accepted packet length average = 1
Total in-flight flits = 4 (0 measured)
latency change    = 1
throughput change = 1
Class 0:
Packet latency average = 17.1592
	minimum = 7
	maximum = 41
Network latency average = 17.1592
	minimum = 7
	maximum = 41
Slowest packet = 30522
Flit latency average = 17.1592
	minimum = 7
	maximum = 41
Slowest flit = 30522
Fragmentation average = 0
	minimum = 0
	maximum = 0
Injected packet rate average = 0.01
	minimum = 0.003 (at node 15)
	maximum = 0.015 (at node 5)
Accepted packet rate average = 0.0098125
	minimum = 0 (at node 0)
	maximum = 0.157 (at node 9)
Injected flit rate average = 0.01
	minimum = 0.003 (at node 15)
	maximum = 0.015 (at node 5)
Accepted flit rate average= 0.0098125
	minimum = 0 (at node 0)
	maximum = 0.157 (at node 9)
Injected packet length average = 1
Accepted packet length average = 1
Total in-flight flits = 3 (0 measured)
latency change    = 0.0998039
throughput change = 0.00636943
Class 0:
Packet latency average = 17.2295
	minimum = 7
	maximum = 27
Network latency average = 17.2295
	minimum = 7
	maximum = 27
Slowest packet = 30707
Flit latency average = 17.2295
	minimum = 7
	maximum = 27
Slowest flit = 30707
Fragmentation average = 0
	minimum = 0
	maximum = 0
Injected packet rate average = 0.00775
	minimum = 0.002 (at node 8)
	maximum = 0.014 (at node 0)
Accepted packet rate average = 0.007625
	minimum = 0 (at node 0)
	maximum = 0.122 (at node 9)
Injected flit rate average = 0.00775
	minimum = 0.002 (at node 8)
	maximum = 0.014 (at node 0)
Accepted flit rate average= 0.007625
	minimum = 0 (at node 0)
	maximum = 0.122 (at node 9)
Injected packet length average = 1
Accepted packet length average = 1
Total in-flight flits = 4 (0 measured)
latency change    = 0.00407861
throughput change = 0.286885
Warmed up ...Time used is 1500 cycles
Class 0:
Packet latency average = 17.2188
	minimum = 7
	maximum = 27
Network latency average = 17.2188
	minimum = 7
	maximum = 27
Slowest packet = 30741
Flit latency average = 17.5
	minimum = 7
	maximum = 27
Slowest flit = 30735
Fragmentation average = 0
	minimum = 0
	maximum = 0
Injected packet rate average = 0.008
	minimum = 0.002 (at node 15)
	maximum = 0.014 (at node 4)
Accepted packet rate average = 0.0085
	minimum = 0 (at node 0)
	maximum = 0.136 (at node 9)
Injected flit rate average = 0.008
	minimum = 0.002 (at node 15)
	maximum = 0.014 (at node 4)
Accepted flit rate average= 0.0085
	minimum = 0 (at node 0)
	maximum = 0.136 (at node 9)
Injected packet length average = 1
Accepted packet length average = 1
Total in-flight flits = 0 (0 measured)
latency change    = 0.000624795
throughput change = 0.102941
Class 0:
Packet latency average = 17.306
	minimum = 7
	maximum = 29
Network latency average = 17.306
	minimum = 7
	maximum = 29
Slowest packet = 30865
Flit latency average = 17.442
	minimum = 7
	maximum = 29
Slowest flit = 30865
Fragmentation average = 0
	minimum = 0
	maximum = 0
Injected packet rate average = 0.0085625
	minimum = 0.006 (at node 3)
	maximum = 0.015 (at node 14)
Accepted packet rate average = 0.008625
	minimum = 0 (at node 0)
	maximum = 0.138 (at node 9)
Injected flit rate average = 0.0085625
	minimum = 0.006 (at node 3)
	maximum = 0.015 (at node 14)
Accepted flit rate average= 0.008625
	minimum = 0 (at node 0)
	maximum = 0.138 (at node 9)
Injected packet length average = 1
Accepted packet length average = 1
Total in-flight flits = 3 (3 measured)
latency change    = 0.00503989
throughput change = 0.0144928
Class 0:
Packet latency average = 17.5782
	minimum = 7
	maximum = 29
Network latency average = 17.5782
	minimum = 7
	maximum = 29
Slowest packet = 30865
Flit latency average = 17.6605
	minimum = 7
	maximum = 29
Slowest flit = 30865
Fragmentation average = 0
	minimum = 0
	maximum = 0
Injected packet rate average = 0.00883333
	minimum = 0.00533333 (at node 3)
	maximum = 0.0173333 (at node 14)
Accepted packet rate average = 0.00895833
	minimum = 0 (at node 0)
	maximum = 0.143333 (at node 9)
Injected flit rate average = 0.00883333
	minimum = 0.00533333 (at node 3)
	maximum = 0.0173333 (at node 14)
Accepted flit rate average= 0.00895833
	minimum = 0 (at node 0)
	maximum = 0.143333 (at node 9)
Injected packet length average = 1
Accepted packet length average = 1
Total in-flight flits = 1 (1 measured)
latency change    = 0.0154867
throughput change = 0.0372093
Class 0:
Packet latency average = 17.5139
	minimum = 7
	maximum = 34
Network latency average = 17.5139
	minimum = 7
	maximum = 34
Slowest packet = 30962
Flit latency average = 17.5753
	minimum = 7
	maximum = 34
Slowest flit = 30962
Fragmentation average = 0
	minimum = 0
	maximum = 0
Injected packet rate average = 0.0090625
	minimum = 0.0055 (at node 3)
	maximum = 0.014 (at node 14)
Accepted packet rate average = 0.009125
	minimum = 0 (at node 0)
	maximum = 0.146 (at node 9)
Injected flit rate average = 0.0090625
	minimum = 0.0055 (at node 3)
	maximum = 0.014 (at node 14)
Accepted flit rate average= 0.009125
	minimum = 0 (at node 0)
	maximum = 0.146 (at node 9)
Injected packet length average = 1
Accepted packet length average = 1
Total in-flight flits = 2 (2 measured)
latency change    = 0.00367195
throughput change = 0.0182648
Draining all recorded packets ...
Draining remaining packets ...
Time taken is 3523 cycles
Class 0:
Packet latency average = 16.6133
	minimum = 7
	maximum = 27
Network latency average = 16.6133
	minimum = 7
	maximum = 27
Slowest packet = 31046
Flit latency average = 16.6133
	minimum = 7
	maximum = 27
Slowest flit = 31046
Fragmentation average = 0
	minimum = 0
	maximum = 0
Injected packet rate average = 0.00975
	minimum = 0.004 (at node 1)
	maximum = 0.02 (at node 13)
Accepted packet rate average = 0.009375
	minimum = 0 (at node 0)
	maximum = 0.15 (at node 9)
Injected flit rate average = 0.00975
	minimum = 0.004 (at node 1)
	maximum = 0.02 (at node 13)
Accepted flit rate average= 0.009375
	minimum = 0 (at node 0)
	maximum = 0.15 (at node 9)
Injected packet length average = 1
Accepted packet length average = 1
Total in-flight flits = 3 (0 measured)
latency change    = 1
throughput change = 1
Class 0:
Packet latency average = 16.4437
	minimum = 7
	maximum = 28
Network latency average = 16.4437
	minimum = 7
	maximum = 28
Slowest packet = 31129
Flit latency average = 16.4437
	minimum = 7
	maximum = 28
Slowest flit = 31129
Fragmentation average = 0
	minimum = 0
	maximum = 0
Injected packet rate average = 0.0095
	minimum = 0.006 (at node 0)
	maximum = 0.019 (at node 13)
Accepted packet rate average = 0.0094375
	minimum = 0 (at node 0)
	maximum = 0.151 (at node 9)
Injected flit rate average = 0.0095
	minimum = 0.006 (at node 0)
	maximum = 0.019 (at node 13)
Accepted flit rate average= 0.0094375
	minimum = 0 (at node 0)
	maximum = 0.151 (at node 9)
Injected packet length average = 1
Accepted packet length average = 1
Total in-flight flits = 1 (0 measured)
latency change    = 0.0103155
throughput change = 0.00662252
Class 0:
Packet latency average = 16.9103
	minimum = 7
	maximum = 27
Network latency average = 16.9103
	minimum = 7
	maximum = 27
Slowest packet = 31192
Flit latency average = 16.9103
	minimum = 7
	maximum = 27
Slowest flit = 31192
Fragmentation average = 0
	minimum = 0
	maximum = 0
Injected packet rate average = 0.010125
	minimum = 0.004 (at node 5)
	maximum = 0.016 (at node 6)
Accepted packet rate average = 0.00975
	minimum = 0 (at node 0)
	maximum = 0.156 (at node 9)
Injected flit rate average = 0.010125
	minimum = 0.004 (at node 5)
	maximum = 0.016 (at node 6)
Accepted flit rate average= 0.00975
	minimum = 0 (at node 0)
	maximum = 0.156 (at node 9)
Injected packet length average = 1
Accepted packet length average = 1
Total in-flight flits = 4 (0 measured)
latency change    = 0.0275896
throughput change = 0.0320513
Warmed up ...Time used is 1500 cycles
Class 0:
Packet latency average = 16.9425
	minimum = 7
	maximum = 28
Network latency average = 16.9425
	minimum = 7
	maximum = 28
Slowest packet = 31278
Flit latency average = 16.9451
	minimum = 7
	maximum = 28
Slowest flit = 31278
Fragmentation average = 0
	minimum = 0
	maximum = 0
Injected packet rate average = 0.011875
	minimum = 0.008 (at node 1)
	maximum = 0.02 (at node 0)
Accepted packet rate average = 0.011375
	minimum = 0 (at node 0)
	maximum = 0.182 (at node 9)
Injected flit rate average = 0.011875
	minimum = 0.008 (at node 1)
	maximum = 0.02 (at node 0)
Accepted flit rate average= 0.011375
	minimum = 0 (at node 0)
	maximum = 0.182 (at node 9)
Injected packet length average = 1
Accepted packet length average = 1
Total in-flight flits = 8 (8 measured)
latency change    = 0.00190481
throughput change = 0.142857
Class 0:
Packet latency average = 17.1214
	minimum = 7
	maximum = 33
Network latency average = 17.1214
	minimum = 7
	maximum = 33
Slowest packet = 31423
Flit latency average = 17.1186
	minimum = 7
	maximum = 33
Slowest flit = 31423
Fragmentation average = 0
	minimum = 0
	maximum = 0
Injected packet rate average = 0.010875
	minimum = 0.006 (at node 12)
	maximum = 0.017 (at node 10)
Accepted packet rate average = 0.0110625
	minimum = 0 (at node 0)
	maximum = 0.177 (at node 9)
Injected flit rate average = 0.010875
	minimum = 0.006 (at node 12)
	maximum = 0.017 (at node 10)
Accepted flit rate average= 0.0110625
	minimum = 0 (at node 0)
	maximum = 0.177 (at node 9)
Injected packet length average = 1
Accepted packet length average = 1
Total in-flight flits = 1 (1 measured)
latency change    = 0.0104465
throughput change = 0.0282486
Class 0:
Packet latency average = 17.728
	minimum = 7
	maximum = 34
Network latency average = 17.728
	minimum = 7
	maximum = 34
Slowest packet = 31488
Flit latency average = 17.7165
	minimum = 7
	maximum = 34
Slowest flit = 31488
Fragmentation average = 0
	minimum = 0
	maximum = 0
Injected packet rate average = 0.0105417
	minimum = 0.00533333 (at node 12)
	maximum = 0.018 (at node 3)
Accepted packet rate average = 0.0105833
	minimum = 0 (at node 0)
	maximum = 0.169333 (at node 9)
Injected flit rate average = 0.0105417
	minimum = 0.00533333 (at node 12)
	maximum = 0.018 (at node 3)
Accepted flit rate average= 0.0105833
	minimum = 0 (at node 0)
	maximum = 0.169333 (at node 9)
Injected packet length average = 1
Accepted packet length average = 1
Total in-flight flits = 3 (3 measured)
latency change    = 0.0342178
throughput change = 0.0452756
Class 0:
Packet latency average = 17.8155
	minimum = 7
	maximum = 34
Network latency average = 17.8155
	minimum = 7
	maximum = 34
Slowest packet = 31488
Flit latency average = 17.8059
	minimum = 7
	maximum = 34
Slowest flit = 31488
Fragmentation average = 0
	minimum = 0
	maximum = 0
Injected packet rate average = 0.0105625
	minimum = 0.007 (at node 12)
	maximum = 0.016 (at node 10)
Accepted packet rate average = 0.010625
	minimum = 0 (at node 0)
	maximum = 0.17 (at node 9)
Injected flit rate average = 0.0105625
	minimum = 0.007 (at node 12)
	maximum = 0.016 (at node 10)
Accepted flit rate average= 0.010625
	minimum = 0 (at node 0)
	maximum = 0.17 (at node 9)
Injected packet length average = 1
Accepted packet length average = 1
Total in-flight flits = 2 (2 measured)
latency change    = 0.00491012
throughput change = 0.00392157
Draining all recorded packets ...
Draining remaining packets ...
Time taken is 3536 cycles
Class 0:
Packet latency average = 18.5522
	minimum = 7
	maximum = 37
Network latency average = 18.5522
	minimum = 7
	maximum = 37
Slowest packet = 31667
Flit latency average = 18.5522
	minimum = 7
	maximum = 37
Slowest flit = 31667
Fragmentation average = 0
	minimum = 0
	maximum = 0
Injected packet rate average = 0.008875
	minimum = 0.004 (at node 0)
	maximum = 0.016 (at node 3)
Accepted packet rate average = 0.008375
	minimum = 0 (at node 0)
	maximum = 0.134 (at node 9)
Injected flit rate average = 0.008875
	minimum = 0.004 (at node 0)
	maximum = 0.016 (at node 3)
Accepted flit rate average= 0.008375
	minimum = 0 (at node 0)
	maximum = 0.134 (at node 9)
Injected packet length average = 1
Accepted packet length average = 1
Total in-flight flits = 4 (0 measured)
latency change    = 1
throughput change = 1
Class 0:
Packet latency average = 17.6507
	minimum = 7
	maximum = 37
Network latency average = 17.6507
	minimum = 7
	maximum = 37
Slowest packet = 31667
Flit latency average = 17.6507
	minimum = 7
	maximum = 37
Slowest flit = 31667
Fragmentation average = 0
	minimum = 0
	maximum = 0
Injected packet rate average = 0.0094375
	minimum = 0.005 (at node 12)
	maximum = 0.016 (at node 7)
Accepted packet rate average = 0.009125
	minimum = 0 (at node 0)
	maximum = 0.146 (at node 9)
Injected flit rate average = 0.0094375
	minimum = 0.005 (at node 12)
	maximum = 0.016 (at node 7)
Accepted flit rate average= 0.009125
	minimum = 0 (at node 0)
	maximum = 0.146 (at node 9)
Injected packet length average = 1
Accepted packet length average = 1
Total in-flight flits = 5 (0 measured)
latency change    = 0.0510776
throughput change = 0.0821918
Class 0:
Packet latency average = 16.3286
	minimum = 7
	maximum = 30
Network latency average = 16.3286
	minimum = 7
	maximum = 30
Slowest packet = 31782
Flit latency average = 16.3286
	minimum = 7
	maximum = 30
Slowest flit = 31782
Fragmentation average = 0
	minimum = 0
	maximum = 0
Injected packet rate average = 0.008125
	minimum = 0 (at node 15)
	maximum = 0.016 (at node 6)
Accepted packet rate average = 0.00875
	minimum = 0 (at node 0)
	maximum = 0.14 (at node 9)
Injected flit rate average = 0.008125
	minimum = 0 (at node 15)
	maximum = 0.016 (at node 6)
Accepted flit rate average= 0.00875
	minimum = 0 (at node 0)
	maximum = 0.14 (at node 9)
Injected packet length average = 1
Accepted packet length average = 1
Total in-flight flits = 0 (0 measured)
latency change    = 0.0809693
throughput change = 0.0428571
Warmed up ...Time used is 1500 cycles
Class 0:
Packet latency average = 17.2933
	minimum = 7
	maximum = 27
Network latency average = 17.2933
	minimum = 7
	maximum = 27
Slowest packet = 31823
Flit latency average = 17.2933
	minimum = 7
	maximum = 27
Slowest flit = 31823
Fragmentation average = 0
	minimum = 0
	maximum = 0
Injected packet rate average = 0.009875
	minimum = 0.002 (at node 1)
	maximum = 0.02 (at node 6)
Accepted packet rate average = 0.009375
	minimum = 0 (at node 0)
	maximum = 0.15 (at node 9)
Injected flit rate average = 0.009875
	minimum = 0.002 (at node 1)
	maximum = 0.02 (at node 6)
Accepted flit rate average= 0.009375
	minimum = 0 (at node 0)
	maximum = 0.15 (at node 9)
Injected packet length average = 1
Accepted packet length average = 1
Total in-flight flits = 4 (4 measured)
latency change    = 0.0557881
throughput change = 0.0666667
Class 0:
Packet latency average = 17.2847
	minimum = 7
	maximum = 29
Network latency average = 17.2847
	minimum = 7
	maximum = 29
Slowest packet = 31920
Flit latency average = 17.2847
	minimum = 7
	maximum = 29
Slowest flit = 31920
Fragmentation average = 0
	minimum = 0
	maximum = 0
Injected packet rate average = 0.0090625
	minimum = 0.004 (at node 14)
	maximum = 0.014 (at node 5)
Accepted packet rate average = 0.009
	minimum = 0 (at node 0)
	maximum = 0.144 (at node 9)
Injected flit rate average = 0.0090625
	minimum = 0.004 (at node 14)
	maximum = 0.014 (at node 5)
Accepted flit rate average= 0.009
	minimum = 0 (at node 0)
	maximum = 0.144 (at node 9)
Injected packet length average = 1
Accepted packet length average = 1
Total in-flight flits = 1 (1 measured)
latency change    = 0.000498192
throughput change = 0.0416667
Class 0:
Packet latency average = 17.424
	minimum = 7
	maximum = 29
Network latency average = 17.424
	minimum = 7
	maximum = 29
Slowest packet = 31920
Flit latency average = 17.424
	minimum = 7
	maximum = 29
Slowest flit = 31920
Fragmentation average = 0
	minimum = 0
	maximum = 0
Injected packet rate average = 0.00908333
	minimum = 0.00533333 (at node 8)
	maximum = 0.0106667 (at node 5)
Accepted packet rate average = 0.00904167
	minimum = 0 (at node 0)
	maximum = 0.144667 (at node 9)
Injected flit rate average = 0.00908333
	minimum = 0.00533333 (at node 8)
	maximum = 0.0106667 (at node 5)
Accepted flit rate average= 0.00904167
	minimum = 0 (at node 0)
	maximum = 0.144667 (at node 9)
Injected packet length average = 1
Accepted packet length average = 1
Total in-flight flits = 1 (1 measured)
latency change    = 0.00799135
throughput change = 0.00460829
Class 0:
Packet latency average = 17.3456
	minimum = 7
	maximum = 29
Network latency average = 17.3456
	minimum = 7
	maximum = 29
Slowest packet = 31920
Flit latency average = 17.3456
	minimum = 7
	maximum = 29
Slowest flit = 31920
Fragmentation average = 0
	minimum = 0
	maximum = 0
Injected packet rate average = 0.009375
	minimum = 0.007 (at node 8)
	maximum = 0.012 (at node 10)
Accepted packet rate average = 0.0093125
	minimum = 0 (at node 0)
	maximum = 0.149 (at node 9)
Injected flit rate average = 0.009375
	minimum = 0.007 (at node 8)
	maximum = 0.012 (at node 10)
Accepted flit rate average= 0.0093125
	minimum = 0 (at node 0)
	maximum = 0.149 (at node 9)
Injected packet length average = 1
Accepted packet length average = 1
Total in-flight flits = 2 (2 measured)
latency change    = 0.00451558
throughput change = 0.0290828
Draining all recorded packets ...
Draining remaining packets ...
Time taken is 3518 cycles
====== Overall Traffic Statistics ======
====== Traffic class 0 ======
Packet latency average = 17.3992 (50 samples)
	minimum = 7 (50 samples)
	maximum = 35.74 (50 samples)
Network latency average = 17.3992 (50 samples)
	minimum = 7 (50 samples)
	maximum = 35.74 (50 samples)
Flit latency average = 17.4077 (50 samples)
	minimum = 7 (50 samples)
	maximum = 35.76 (50 samples)
Fragmentation average = 0 (50 samples)
	minimum = 0 (50 samples)
	maximum = 0 (50 samples)
Injected packet rate average = 0.00997913 (50 samples)
	minimum = 0.00651629 (50 samples)
	maximum = 0.0137017 (50 samples)
Accepted packet rate average = 0.00997623 (50 samples)
	minimum = 0 (50 samples)
	maximum = 0.15962 (50 samples)
Injected flit rate average = 0.00997913 (50 samples)
	minimum = 0.00651629 (50 samples)
	maximum = 0.0137017 (50 samples)
Accepted flit rate average = 0.00997623 (50 samples)
	minimum = 0 (50 samples)
	maximum = 0.15962 (50 samples)
Injected packet size average = 1 (50 samples)
Accepted packet size average = 1 (50 samples)
Hops average = 2.99042 (50 samples)
Total run time 1.02605
