BEGIN Configuration File: /tmp/tmpx7pnorx8.cfg
topology = mesh;
k = 4;
n = 2;
routing_function = dor;
num_vcs = 4;
vc_buf_size = 4;
wait_for_tail_credit = 1;
vc_allocator = islip;
sw_allocator = islip;
alloc_iters = 1;
credit_delay = 2;
routing_delay = 1;
vc_alloc_delay = 1;
sw_alloc_delay = 1;
input_speedup = 2;
output_speedup = 1;
internal_speedup = 1.0;
traffic = hotspot;
packet_size = 1;
sim_type = latency;
injection_rate = 0.01;
warmup_periods = 3;
sample_period = 500;
sim_count = 50;
seed = 2;
link_failures = 1;
fail_seed = 202;

END Configuration File: /tmp/tmpx7pnorx8.cfg
failure at node 4, channel 2 (1/1)
Class 0:
Packet latency average = 19.3548
	minimum = 7
	maximum = 32
Network latency average = 19.3548
	minimum = 7
	maximum = 32
Slowest packet = 1
Flit latency average = 19.3548
	minimum = 7
	maximum = 32
Slowest flit = 1
Fragmentation average = 0
	minimum = 0
	maximum = 0
Injected packet rate average = 0.008125
	minimum = 0 (at node 9)
	maximum = 0.014 (at node 5)
Accepted packet rate average = 0.00775
	minimum = 0 (at node 0)
	maximum = 0.124 (at node 13)
Injected flit rate average = 0.008125
	minimum = 0 (at node 9)
	maximum = 0.014 (at node 5)
Accepted flit rate average= 0.00775
	minimum = 0 (at node 0)
	maximum = 0.124 (at node 13)
Injected packet length average = 1
Accepted packet length average = 1
Total in-flight flits = 3 (0 measured)
latency change    = 1
throughput change = 1
Class 0:
Packet latency average = 18.8657
	minimum = 7
	maximum = 32
Network latency average = 18.8657
	minimum = 7
	maximum = 32
Slowest packet = 1
Flit latency average = 18.8657
	minimum = 7
	maximum = 32
Slowest flit = 1
Fragmentation average = 0
	minimum = 0
	maximum = 0
Injected packet rate average = 0.008625
	minimum = 0.003 (at node 2)
	maximum = 0.015 (at node 13)
Accepted packet rate average = 0.008375
	minimum = 0 (at node 0)
	maximum = 0.134 (at node 13)
Injected flit rate average = 0.008625
	minimum = 0.003 (at node 2)
	maximum = 0.015 (at node 13)
Accepted flit rate average= 0.008375
	minimum = 0 (at node 0)
	maximum = 0.134 (at node 13)
Injected packet length average = 1
Accepted packet length average = 1
Total in-flight flits = 4 (0 measured)
latency change    = 0.025929
throughput change = 0.0746269
Class 0:
Packet latency average = 18.0602
	minimum = 7
	maximum = 34
Network latency average = 18.0602
	minimum = 7
	maximum = 34
Slowest packet = 200
Flit latency average = 18.0602
	minimum = 7
	maximum = 34
Slowest flit = 200
Fragmentation average = 0
	minimum = 0
	maximum = 0
Injected packet rate average = 0.01
	minimum = 0.002 (at node 3)
	maximum = 0.022 (at node 13)
Accepted packet rate average = 0.010375
	minimum = 0 (at node 0)
	maximum = 0.166 (at node 13)
Injected flit rate average = 0.01
	minimum = 0.002 (at node 3)
	maximum = 0.022 (at node 13)
Accepted flit rate average= 0.010375
	minimum = 0 (at node 0)
	maximum = 0.166 (at node 13)
Injected packet length average = 1
Accepted packet length average = 1
Total in-flight flits = 1 (0 measured)
latency change    = 0.0445969
throughput change = 0.192771
Warmed up ...Time used is 1500 cycles
Class 0:
Packet latency average = 19.8588
	minimum = 7
	maximum = 33
Network latency average = 19.8588
	minimum = 7
	maximum = 33
Slowest packet = 229
Flit latency average = 19.8837
	minimum = 7
	maximum = 33
Slowest flit = 229
Fragmentation average = 0
	minimum = 0
	maximum = 0
Injected packet rate average = 0.01125
	minimum = 0.004 (at node 15)
	maximum = 0.022 (at node 10)
Accepted packet rate average = 0.01075
	minimum = 0 (at node 0)
	maximum = 0.172 (at node 13)
Injected flit rate average = 0.01125
	minimum = 0.004 (at node 15)
	maximum = 0.022 (at node 10)
Accepted flit rate average= 0.01075
	minimum = 0 (at node 0)
	maximum = 0.172 (at node 13)
Injected packet length average = 1
Accepted packet length average = 1
Total in-flight flits = 5 (5 measured)
latency change    = 0.0905684
throughput change = 0.0348837
Class 0:
Packet latency average = 19.988
	minimum = 7
	maximum = 33
Network latency average = 19.988
	minimum = 7
	maximum = 33
Slowest packet = 229
Flit latency average = 20
	minimum = 7
	maximum = 33
Slowest flit = 229
Fragmentation average = 0
	minimum = 0
	maximum = 0
Injected packet rate average = 0.0105
	minimum = 0.006 (at node 2)
	maximum = 0.015 (at node 3)
Accepted packet rate average = 0.0105
	minimum = 0 (at node 0)
	maximum = 0.168 (at node 13)
Injected flit rate average = 0.0105
	minimum = 0.006 (at node 2)
	maximum = 0.015 (at node 3)
Accepted flit rate average= 0.0105
	minimum = 0 (at node 0)
	maximum = 0.168 (at node 13)
Injected packet length average = 1
Accepted packet length average = 1
Total in-flight flits = 1 (1 measured)
latency change    = 0.00646389
throughput change = 0.0238095
Class 0:
Packet latency average = 20.0681
	minimum = 7
	maximum = 34
Network latency average = 20.0681
	minimum = 7
	maximum = 34
Slowest packet = 391
Flit latency average = 20.0763
	minimum = 7
	maximum = 34
Slowest flit = 391
Fragmentation average = 0
	minimum = 0
	maximum = 0
Injected packet rate average = 0.00983333
	minimum = 0.00666667 (at node 1)
	maximum = 0.0153333 (at node 3)
Accepted packet rate average = 0.00983333
	minimum = 0 (at node 0)
	maximum = 0.157333 (at node 13)
Injected flit rate average = 0.00983333
	minimum = 0.00666667 (at node 1)
	maximum = 0.0153333 (at node 3)
Accepted flit rate average= 0.00983333
	minimum = 0 (at node 0)
	maximum = 0.157333 (at node 13)
Injected packet length average = 1
Accepted packet length average = 1
Total in-flight flits = 1 (1 measured)
latency change    = 0.00398948
throughput change = 0.0677966
Class 0:
Packet latency average = 19.6417
	minimum = 7
	maximum = 34
Network latency average = 19.6417
	minimum = 7
	maximum = 34
Slowest packet = 391
Flit latency average = 19.6491
	minimum = 7
	maximum = 34
Slowest flit = 391
Fragmentation average = 0
	minimum = 0
	maximum = 0
Injected packet rate average = 0.0101875
	minimum = 0.0065 (at node 8)
	maximum = 0.014 (at node 10)
Accepted packet rate average = 0.0100625
	minimum = 0 (at node 0)
	maximum = 0.161 (at node 13)
Injected flit rate average = 0.0101875
	minimum = 0.0065 (at node 8)
	maximum = 0.014 (at node 10)
Accepted flit rate average= 0.0100625
	minimum = 0 (at node 0)
	maximum = 0.161 (at node 13)
Injected packet length average = 1
Accepted packet length average = 1
Total in-flight flits = 5 (5 measured)
latency change    = 0.0217058
throughput change = 0.0227743
Class 0:
Packet latency average = 19.6039
	minimum = 7
	maximum = 34
Network latency average = 19.6039
	minimum = 7
	maximum = 34
Slowest packet = 391
Flit latency average = 19.6098
	minimum = 7
	maximum = 34
Slowest flit = 391
Fragmentation average = 0
	minimum = 0
	maximum = 0
Injected packet rate average = 0.010275
	minimum = 0.0076 (at node 1)
	maximum = 0.0136 (at node 12)
Accepted packet rate average = 0.01025
	minimum = 0 (at node 0)
	maximum = 0.164 (at node 13)
Injected flit rate average = 0.010275
	minimum = 0.0076 (at node 1)
	maximum = 0.0136 (at node 12)
Accepted flit rate average= 0.01025
	minimum = 0 (at node 0)
	maximum = 0.164 (at node 13)
Injected packet length average = 1
Accepted packet length average = 1
Total in-flight flits = 2 (2 measured)
latency change    = 0.00192985
throughput change = 0.0182927
Class 0:
Packet latency average = 19.5861
	minimum = 7
	maximum = 34
Network latency average = 19.5861
	minimum = 7
	maximum = 34
Slowest packet = 391
Flit latency average = 19.591
	minimum = 7
	maximum = 34
Slowest flit = 391
Fragmentation average = 0
	minimum = 0
	maximum = 0
Injected packet rate average = 0.0103125
	minimum = 0.00766667 (at node 1)
	maximum = 0.0136667 (at node 10)
Accepted packet rate average = 0.0101875
	minimum = 0 (at node 0)
	maximum = 0.163 (at node 13)
Injected flit rate average = 0.0103125
	minimum = 0.00766667 (at node 1)
	maximum = 0.0136667 (at node 10)
Accepted flit rate average= 0.0101875
	minimum = 0 (at node 0)
	maximum = 0.163 (at node 13)
Injected packet length average = 1
Accepted packet length average = 1
Total in-flight flits = 7 (7 measured)
latency change    = 0.000911179
throughput change = 0.00613497
Draining all recorded packets ...
Draining remaining packets ...
Time taken is 4553 cycles
Class 0:
Packet latency average = 19.6765
	minimum = 7
	maximum = 33
Network latency average = 19.6765
	minimum = 7
	maximum = 33
Slowest packet = 748
Flit latency average = 19.6765
	minimum = 7
	maximum = 33
Slowest flit = 748
Fragmentation average = 0
	minimum = 0
	maximum = 0
Injected packet rate average = 0.00875
	minimum = 0.004 (at node 7)
	maximum = 0.026 (at node 5)
Accepted packet rate average = 0.0085
	minimum = 0 (at node 0)
	maximum = 0.136 (at node 13)
Injected flit rate average = 0.00875
	minimum = 0.004 (at node 7)
	maximum = 0.026 (at node 5)
Accepted flit rate average= 0.0085
	minimum = 0 (at node 0)
	maximum = 0.136 (at node 13)
Injected packet length average = 1
Accepted packet length average = 1
Total in-flight flits = 2 (0 measured)
latency change    = 1
throughput change = 1
Class 0:
Packet latency average = 20.1572
	minimum = 7
	maximum = 33
Network latency average = 20.1572
	minimum = 7
	maximum = 33
Slowest packet = 748
Flit latency average = 20.1572
	minimum = 7
	maximum = 33
Slowest flit = 748
Fragmentation average = 0
	minimum = 0
	maximum = 0
Injected packet rate average = 0.01
	minimum = 0.005 (at node 2)
	maximum = 0.018 (at node 5)
Accepted packet rate average = 0.0099375
	minimum = 0 (at node 0)
	maximum = 0.159 (at node 13)
Injected flit rate average = 0.01
	minimum = 0.005 (at node 2)
	maximum = 0.018 (at node 5)
Accepted flit rate average= 0.0099375
	minimum = 0 (at node 0)
	maximum = 0.159 (at node 13)
Injected packet length average = 1
Accepted packet length average = 1
Total in-flight flits = 1 (0 measured)
latency change    = 0.0238506
throughput change = 0.144654
Class 0:
Packet latency average = 18.5541
	minimum = 7
	maximum = 34
Network latency average = 18.5541
	minimum = 7
	maximum = 34
Slowest packet = 931
Flit latency average = 18.5541
	minimum = 7
	maximum = 34
Slowest flit = 931
Fragmentation average = 0
	minimum = 0
	maximum = 0
Injected packet rate average = 0.009625
	minimum = 0.004 (at node 1)
	maximum = 0.018 (at node 9)
Accepted packet rate average = 0.00925
	minimum = 0 (at node 0)
	maximum = 0.148 (at node 13)
Injected flit rate average = 0.009625
	minimum = 0.004 (at node 1)
	maximum = 0.018 (at node 9)
Accepted flit rate average= 0.00925
	minimum = 0 (at node 0)
	maximum = 0.148 (at node 13)
Injected packet length average = 1
Accepted packet length average = 1
Total in-flight flits = 4 (0 measured)
latency change    = 0.0864058
throughput change = 0.0743243
Warmed up ...Time used is 1500 cycles
Class 0:
Packet latency average = 19.5714
	minimum = 7
	maximum = 33
Network latency average = 19.5714
	minimum = 7
	maximum = 33
Slowest packet = 1007
Flit latency average = 19.3977
	minimum = 7
	maximum = 33
Slowest flit = 1007
Fragmentation average = 0
	minimum = 0
	maximum = 0
Injected packet rate average = 0.010625
	minimum = 0.004 (at node 6)
	maximum = 0.016 (at node 5)
Accepted packet rate average = 0.011
	minimum = 0 (at node 0)
	maximum = 0.176 (at node 13)
Injected flit rate average = 0.010625
	minimum = 0.004 (at node 6)
	maximum = 0.016 (at node 5)
Accepted flit rate average= 0.011
	minimum = 0 (at node 0)
	maximum = 0.176 (at node 13)
Injected packet length average = 1
Accepted packet length average = 1
Total in-flight flits = 1 (1 measured)
latency change    = 0.0519826
throughput change = 0.159091
Class 0:
Packet latency average = 19.6047
	minimum = 7
	maximum = 37
Network latency average = 19.6047
	minimum = 7
	maximum = 37
Slowest packet = 1056
Flit latency average = 19.517
	minimum = 7
	maximum = 37
Slowest flit = 1056
Fragmentation average = 0
	minimum = 0
	maximum = 0
Injected packet rate average = 0.0109375
	minimum = 0.007 (at node 6)
	maximum = 0.015 (at node 5)
Accepted packet rate average = 0.011
	minimum = 0 (at node 0)
	maximum = 0.176 (at node 13)
Injected flit rate average = 0.0109375
	minimum = 0.007 (at node 6)
	maximum = 0.015 (at node 5)
Accepted flit rate average= 0.011
	minimum = 0 (at node 0)
	maximum = 0.176 (at node 13)
Injected packet length average = 1
Accepted packet length average = 1
Total in-flight flits = 3 (3 measured)
latency change    = 0.00169463
throughput change = 0
Class 0:
Packet latency average = 19.7143
	minimum = 7
	maximum = 37
Network latency average = 19.7143
	minimum = 7
	maximum = 37
Slowest packet = 1056
Flit latency average = 19.6523
	minimum = 7
	maximum = 37
Slowest flit = 1056
Fragmentation average = 0
	minimum = 0
	maximum = 0
Injected packet rate average = 0.01075
	minimum = 0.00866667 (at node 2)
	maximum = 0.0153333 (at node 5)
Accepted packet rate average = 0.0106667
	minimum = 0 (at node 0)
	maximum = 0.170667 (at node 13)
Injected flit rate average = 0.01075
	minimum = 0.00866667 (at node 2)
	maximum = 0.0153333 (at node 5)
Accepted flit rate average= 0.0106667
	minimum = 0 (at node 0)
	maximum = 0.170667 (at node 13)
Injected packet length average = 1
Accepted packet length average = 1
Total in-flight flits = 6 (6 measured)
latency change    = 0.00556117
throughput change = 0.03125
Class 0:
Packet latency average = 19.9362
	minimum = 7
	maximum = 37
Network latency average = 19.9362
	minimum = 7
	maximum = 37
Slowest packet = 1056
Flit latency average = 19.8859
	minimum = 7
	maximum = 37
Slowest flit = 1056
Fragmentation average = 0
	minimum = 0
	maximum = 0
Injected packet rate average = 0.0104375
	minimum = 0.008 (at node 6)
	maximum = 0.015 (at node 3)
Accepted packet rate average = 0.0104063
	minimum = 0 (at node 0)
	maximum = 0.1665 (at node 13)
Injected flit rate average = 0.0104375
	minimum = 0.008 (at node 6)
	maximum = 0.015 (at node 3)
Accepted flit rate average= 0.0104063
	minimum = 0 (at node 0)
	maximum = 0.1665 (at node 13)
Injected packet length average = 1
Accepted packet length average = 1
Total in-flight flits = 5 (5 measured)
latency change    = 0.0111297
throughput change = 0.025025
Draining all recorded packets ...
Draining remaining packets ...
Time taken is 3523 cycles
Class 0:
Packet latency average = 19.7792
	minimum = 7
	maximum = 32
Network latency average = 19.7792
	minimum = 7
	maximum = 32
Slowest packet = 1292
Flit latency average = 19.7792
	minimum = 7
	maximum = 32
Slowest flit = 1292
Fragmentation average = 0
	minimum = 0
	maximum = 0
Injected packet rate average = 0.00975
	minimum = 0.002 (at node 11)
	maximum = 0.014 (at node 1)
Accepted packet rate average = 0.009625
	minimum = 0 (at node 0)
	maximum = 0.154 (at node 13)
Injected flit rate average = 0.00975
	minimum = 0.002 (at node 11)
	maximum = 0.014 (at node 1)
Accepted flit rate average= 0.009625
	minimum = 0 (at node 0)
	maximum = 0.154 (at node 13)
Injected packet length average = 1
Accepted packet length average = 1
Total in-flight flits = 1 (0 measured)
latency change    = 1
throughput change = 1
Class 0:
Packet latency average = 19.7561
	minimum = 7
	maximum = 32
Network latency average = 19.7561
	minimum = 7
	maximum = 32
Slowest packet = 1292
Flit latency average = 19.7561
	minimum = 7
	maximum = 32
Slowest flit = 1292
Fragmentation average = 0
	minimum = 0
	maximum = 0
Injected packet rate average = 0.0105625
	minimum = 0.006 (at node 5)
	maximum = 0.015 (at node 15)
Accepted packet rate average = 0.01025
	minimum = 0 (at node 0)
	maximum = 0.164 (at node 13)
Injected flit rate average = 0.0105625
	minimum = 0.006 (at node 5)
	maximum = 0.015 (at node 15)
Accepted flit rate average= 0.01025
	minimum = 0 (at node 0)
	maximum = 0.164 (at node 13)
Injected packet length average = 1
Accepted packet length average = 1
Total in-flight flits = 5 (0 measured)
latency change    = 0.00117043
throughput change = 0.0609756
Class 0:
Packet latency average = 20.0538
	minimum = 12
	maximum = 33
Network latency average = 20.0538
	minimum = 12
	maximum = 33
Slowest packet = 1488
Flit latency average = 20.0538
	minimum = 12
	maximum = 33
Slowest flit = 1488
Fragmentation average = 0
	minimum = 0
	maximum = 0
Injected packet rate average = 0.0115
	minimum = 0 (at node 7)
	maximum = 0.022 (at node 0)
Accepted packet rate average = 0.011625
	minimum = 0 (at node 0)
	maximum = 0.186 (at node 13)
Injected flit rate average = 0.0115
	minimum = 0 (at node 7)
	maximum = 0.022 (at node 0)
Accepted flit rate average= 0.011625
	minimum = 0 (at node 0)
	maximum = 0.186 (at node 13)
Injected packet length average = 1
Accepted packet length average = 1
Total in-flight flits = 4 (0 measured)
latency change    = 0.0148434
throughput change = 0.11828
Warmed up ...Time used is 1500 cycles
Class 0:
Packet latency average = 19.2333
	minimum = 7
	maximum = 35
Network latency average = 19.2333
	minimum = 7
	maximum = 35
Slowest packet = 1561
Flit latency average = 19.5106
	minimum = 7
	maximum = 35
Slowest flit = 1561
Fragmentation average = 0
	minimum = 0
	maximum = 0
Injected packet rate average = 0.01175
	minimum = 0.004 (at node 1)
	maximum = 0.022 (at node 0)
Accepted packet rate average = 0.01175
	minimum = 0 (at node 0)
	maximum = 0.188 (at node 13)
Injected flit rate average = 0.01175
	minimum = 0.004 (at node 1)
	maximum = 0.022 (at node 0)
Accepted flit rate average= 0.01175
	minimum = 0 (at node 0)
	maximum = 0.188 (at node 13)
Injected packet length average = 1
Accepted packet length average = 1
Total in-flight flits = 4 (4 measured)
latency change    = 0.0426567
throughput change = 0.0106383
Class 0:
Packet latency average = 19.2254
	minimum = 7
	maximum = 35
Network latency average = 19.2254
	minimum = 7
	maximum = 35
Slowest packet = 1561
Flit latency average = 19.3729
	minimum = 7
	maximum = 35
Slowest flit = 1561
Fragmentation average = 0
	minimum = 0
	maximum = 0
Injected packet rate average = 0.0110625
	minimum = 0.005 (at node 3)
	maximum = 0.019 (at node 14)
Accepted packet rate average = 0.0110625
	minimum = 0 (at node 0)
	maximum = 0.177 (at node 13)
Injected flit rate average = 0.0110625
	minimum = 0.005 (at node 3)
	maximum = 0.019 (at node 14)
Accepted flit rate average= 0.0110625
	minimum = 0 (at node 0)
	maximum = 0.177 (at node 13)
Injected packet length average = 1
Accepted packet length average = 1
Total in-flight flits = 4 (4 measured)
latency change    = 0.000410904
throughput change = 0.0621469
Class 0:
Packet latency average = 19.5564
	minimum = 7
	maximum = 35
Network latency average = 19.5564
	minimum = 7
	maximum = 35
Slowest packet = 1561
Flit latency average = 19.6481
	minimum = 7
	maximum = 35
Slowest flit = 1561
Fragmentation average = 0
	minimum = 0
	maximum = 0
Injected packet rate average = 0.0112917
	minimum = 0.00466667 (at node 1)
	maximum = 0.018 (at node 6)
Accepted packet rate average = 0.01125
	minimum = 0 (at node 0)
	maximum = 0.18 (at node 13)
Injected flit rate average = 0.0112917
	minimum = 0.00466667 (at node 1)
	maximum = 0.018 (at node 6)
Accepted flit rate average= 0.01125
	minimum = 0 (at node 0)
	maximum = 0.18 (at node 13)
Injected packet length average = 1
Accepted packet length average = 1
Total in-flight flits = 5 (5 measured)
latency change    = 0.0169232
throughput change = 0.0166667
Class 0:
Packet latency average = 19.5112
	minimum = 7
	maximum = 35
Network latency average = 19.5112
	minimum = 7
	maximum = 35
Slowest packet = 1561
Flit latency average = 19.5806
	minimum = 7
	maximum = 35
Slowest flit = 1561
Fragmentation average = 0
	minimum = 0
	maximum = 0
Injected packet rate average = 0.0112812
	minimum = 0.0065 (at node 9)
	maximum = 0.0155 (at node 6)
Accepted packet rate average = 0.01125
	minimum = 0 (at node 0)
	maximum = 0.18 (at node 13)
Injected flit rate average = 0.0112812
	minimum = 0.0065 (at node 9)
	maximum = 0.0155 (at node 6)
Accepted flit rate average= 0.01125
	minimum = 0 (at node 0)
	maximum = 0.18 (at node 13)
Injected packet length average = 1
Accepted packet length average = 1
Total in-flight flits = 5 (5 measured)
latency change    = 0.00231431
throughput change = 0
Class 0:
Packet latency average = 19.9502
	minimum = 7
	maximum = 35
Network latency average = 19.9502
	minimum = 7
	maximum = 35
Slowest packet = 1561
Flit latency average = 20.0022
	minimum = 7
	maximum = 35
Slowest flit = 1561
Fragmentation average = 0
	minimum = 0
	maximum = 0
Injected packet rate average = 0.011075
	minimum = 0.0056 (at node 9)
	maximum = 0.0144 (at node 6)
Accepted packet rate average = 0.01115
	minimum = 0 (at node 0)
	maximum = 0.1784 (at node 13)
Injected flit rate average = 0.011075
	minimum = 0.0056 (at node 9)
	maximum = 0.0144 (at node 6)
Accepted flit rate average= 0.01115
	minimum = 0 (at node 0)
	maximum = 0.1784 (at node 13)
Injected packet length average = 1
Accepted packet length average = 1
Total in-flight flits = 1 (1 measured)
latency change    = 0.0220043
throughput change = 0.00896861
Draining all recorded packets ...
Draining remaining packets ...
Time taken is 4035 cycles
Class 0:
Packet latency average = 20.0972
	minimum = 7
	maximum = 32
Network latency average = 20.0972
	minimum = 7
	maximum = 32
Slowest packet = 2016
Flit latency average = 20.0972
	minimum = 7
	maximum = 32
Slowest flit = 2016
Fragmentation average = 0
	minimum = 0
	maximum = 0
Injected packet rate average = 0.00925
	minimum = 0.002 (at node 10)
	maximum = 0.014 (at node 6)
Accepted packet rate average = 0.009
	minimum = 0 (at node 0)
	maximum = 0.144 (at node 13)
Injected flit rate average = 0.00925
	minimum = 0.002 (at node 10)
	maximum = 0.014 (at node 6)
Accepted flit rate average= 0.009
	minimum = 0 (at node 0)
	maximum = 0.144 (at node 13)
Injected packet length average = 1
Accepted packet length average = 1
Total in-flight flits = 2 (0 measured)
latency change    = 1
throughput change = 1
Class 0:
Packet latency average = 19.7972
	minimum = 7
	maximum = 32
Network latency average = 19.7972
	minimum = 7
	maximum = 32
Slowest packet = 2016
Flit latency average = 19.7972
	minimum = 7
	maximum = 32
Slowest flit = 2016
Fragmentation average = 0
	minimum = 0
	maximum = 0
Injected packet rate average = 0.0090625
	minimum = 0.003 (at node 10)
	maximum = 0.014 (at node 0)
Accepted packet rate average = 0.0089375
	minimum = 0 (at node 0)
	maximum = 0.143 (at node 13)
Injected flit rate average = 0.0090625
	minimum = 0.003 (at node 10)
	maximum = 0.014 (at node 0)
Accepted flit rate average= 0.0089375
	minimum = 0 (at node 0)
	maximum = 0.143 (at node 13)
Injected packet length average = 1
Accepted packet length average = 1
Total in-flight flits = 2 (0 measured)
latency change    = 0.0151546
throughput change = 0.00699301
Class 0:
Packet latency average = 18.967
	minimum = 7
	maximum = 34
Network latency average = 18.967
	minimum = 7
	maximum = 34
Slowest packet = 2186
Flit latency average = 18.967
	minimum = 7
	maximum = 34
Slowest flit = 2186
Fragmentation average = 0
	minimum = 0
	maximum = 0
Injected packet rate average = 0.0115
	minimum = 0.004 (at node 6)
	maximum = 0.024 (at node 14)
Accepted packet rate average = 0.011375
	minimum = 0 (at node 0)
	maximum = 0.182 (at node 13)
Injected flit rate average = 0.0115
	minimum = 0.004 (at node 6)
	maximum = 0.024 (at node 14)
Accepted flit rate average= 0.011375
	minimum = 0 (at node 0)
	maximum = 0.182 (at node 13)
Injected packet length average = 1
Accepted packet length average = 1
Total in-flight flits = 3 (0 measured)
latency change    = 0.0437691
throughput change = 0.214286
Warmed up ...Time used is 1500 cycles
Class 0:
Packet latency average = 20.3733
	minimum = 7
	maximum = 32
Network latency average = 20.3733
	minimum = 7
	maximum = 32
Slowest packet = 2260
Flit latency average = 20.1795
	minimum = 7
	maximum = 32
Slowest flit = 2260
Fragmentation average = 0
	minimum = 0
	maximum = 0
Injected packet rate average = 0.009625
	minimum = 0.004 (at node 8)
	maximum = 0.016 (at node 4)
Accepted packet rate average = 0.00975
	minimum = 0 (at node 0)
	maximum = 0.156 (at node 13)
Injected flit rate average = 0.009625
	minimum = 0.004 (at node 8)
	maximum = 0.016 (at node 4)
Accepted flit rate average= 0.00975
	minimum = 0 (at node 0)
	maximum = 0.156 (at node 13)
Injected packet length average = 1
Accepted packet length average = 1
Total in-flight flits = 2 (2 measured)
latency change    = 0.0690265
throughput change = 0.166667
Class 0:
Packet latency average = 19.6494
	minimum = 7
	maximum = 32
Network latency average = 19.6494
	minimum = 7
	maximum = 32
Slowest packet = 2260
Flit latency average = 19.5669
	minimum = 7
	maximum = 32
Slowest flit = 2260
Fragmentation average = 0
	minimum = 0
	maximum = 0
Injected packet rate average = 0.0096875
	minimum = 0.005 (at node 3)
	maximum = 0.015 (at node 5)
Accepted packet rate average = 0.0098125
	minimum = 0 (at node 0)
	maximum = 0.157 (at node 13)
Injected flit rate average = 0.0096875
	minimum = 0.005 (at node 3)
	maximum = 0.015 (at node 5)
Accepted flit rate average= 0.0098125
	minimum = 0 (at node 0)
	maximum = 0.157 (at node 13)
Injected packet length average = 1
Accepted packet length average = 1
Total in-flight flits = 1 (1 measured)
latency change    = 0.0368451
throughput change = 0.00636943
Class 0:
Packet latency average = 19.5541
	minimum = 7
	maximum = 32
Network latency average = 19.5541
	minimum = 7
	maximum = 32
Slowest packet = 2260
Flit latency average = 19.5
	minimum = 7
	maximum = 32
Slowest flit = 2260
Fragmentation average = 0
	minimum = 0
	maximum = 0
Injected packet rate average = 0.00970833
	minimum = 0.006 (at node 3)
	maximum = 0.0126667 (at node 2)
Accepted packet rate average = 0.00975
	minimum = 0 (at node 0)
	maximum = 0.156 (at node 13)
Injected flit rate average = 0.00970833
	minimum = 0.006 (at node 3)
	maximum = 0.0126667 (at node 2)
Accepted flit rate average= 0.00975
	minimum = 0 (at node 0)
	maximum = 0.156 (at node 13)
Injected packet length average = 1
Accepted packet length average = 1
Total in-flight flits = 2 (2 measured)
latency change    = 0.00487049
throughput change = 0.00641026
Class 0:
Packet latency average = 19.6636
	minimum = 7
	maximum = 36
Network latency average = 19.6636
	minimum = 7
	maximum = 36
Slowest packet = 2529
Flit latency average = 19.6235
	minimum = 7
	maximum = 36
Slowest flit = 2529
Fragmentation average = 0
	minimum = 0
	maximum = 0
Injected packet rate average = 0.0101563
	minimum = 0.0065 (at node 3)
	maximum = 0.012 (at node 1)
Accepted packet rate average = 0.010125
	minimum = 0 (at node 0)
	maximum = 0.162 (at node 13)
Injected flit rate average = 0.0101563
	minimum = 0.0065 (at node 3)
	maximum = 0.012 (at node 1)
Accepted flit rate average= 0.010125
	minimum = 0 (at node 0)
	maximum = 0.162 (at node 13)
Injected packet length average = 1
Accepted packet length average = 1
Total in-flight flits = 4 (4 measured)
latency change    = 0.00556557
throughput change = 0.037037
Draining all recorded packets ...
Draining remaining packets ...
Time taken is 3542 cycles
Class 0:
Packet latency average = 20.2118
	minimum = 7
	maximum = 32
Network latency average = 20.2118
	minimum = 7
	maximum = 32
Slowest packet = 2583
Flit latency average = 20.2118
	minimum = 7
	maximum = 32
Slowest flit = 2583
Fragmentation average = 0
	minimum = 0
	maximum = 0
Injected packet rate average = 0.010625
	minimum = 0.004 (at node 4)
	maximum = 0.018 (at node 11)
Accepted packet rate average = 0.010625
	minimum = 0 (at node 0)
	maximum = 0.17 (at node 13)
Injected flit rate average = 0.010625
	minimum = 0.004 (at node 4)
	maximum = 0.018 (at node 11)
Accepted flit rate average= 0.010625
	minimum = 0 (at node 0)
	maximum = 0.17 (at node 13)
Injected packet length average = 1
Accepted packet length average = 1
Total in-flight flits = 0 (0 measured)
latency change    = 1
throughput change = 1
Class 0:
Packet latency average = 20.0311
	minimum = 7
	maximum = 33
Network latency average = 20.0311
	minimum = 7
	maximum = 33
Slowest packet = 2670
Flit latency average = 20.0311
	minimum = 7
	maximum = 33
Slowest flit = 2670
Fragmentation average = 0
	minimum = 0
	maximum = 0
Injected packet rate average = 0.010375
	minimum = 0.005 (at node 7)
	maximum = 0.016 (at node 3)
Accepted packet rate average = 0.0100625
	minimum = 0 (at node 0)
	maximum = 0.161 (at node 13)
Injected flit rate average = 0.010375
	minimum = 0.005 (at node 7)
	maximum = 0.016 (at node 3)
Accepted flit rate average= 0.0100625
	minimum = 0 (at node 0)
	maximum = 0.161 (at node 13)
Injected packet length average = 1
Accepted packet length average = 1
Total in-flight flits = 5 (0 measured)
latency change    = 0.00902143
throughput change = 0.0559006
Class 0:
Packet latency average = 19.3636
	minimum = 7
	maximum = 32
Network latency average = 19.3636
	minimum = 7
	maximum = 32
Slowest packet = 2779
Flit latency average = 19.3636
	minimum = 7
	maximum = 32
Slowest flit = 2779
Fragmentation average = 0
	minimum = 0
	maximum = 0
Injected packet rate average = 0.007875
	minimum = 0 (at node 7)
	maximum = 0.016 (at node 6)
Accepted packet rate average = 0.00825
	minimum = 0 (at node 0)
	maximum = 0.132 (at node 13)
Injected flit rate average = 0.007875
	minimum = 0 (at node 7)
	maximum = 0.016 (at node 6)
Accepted flit rate average= 0.00825
	minimum = 0 (at node 0)
	maximum = 0.132 (at node 13)
Injected packet length average = 1
Accepted packet length average = 1
Total in-flight flits = 2 (0 measured)
latency change    = 0.0344677
throughput change = 0.219697
Warmed up ...Time used is 1500 cycles
Class 0:
Packet latency average = 19.589
	minimum = 7
	maximum = 34
Network latency average = 19.589
	minimum = 7
	maximum = 34
Slowest packet = 2830
Flit latency average = 19.6533
	minimum = 7
	maximum = 34
Slowest flit = 2830
Fragmentation average = 0
	minimum = 0
	maximum = 0
Injected packet rate average = 0.009375
	minimum = 0.002 (at node 8)
	maximum = 0.02 (at node 6)
Accepted packet rate average = 0.009375
	minimum = 0 (at node 0)
	maximum = 0.15 (at node 13)
Injected flit rate average = 0.009375
	minimum = 0.002 (at node 8)
	maximum = 0.02 (at node 6)
Accepted flit rate average= 0.009375
	minimum = 0 (at node 0)
	maximum = 0.15 (at node 13)
Injected packet length average = 1
Accepted packet length average = 1
Total in-flight flits = 2 (2 measured)
latency change    = 0.0115067
throughput change = 0.12
Class 0:
Packet latency average = 19.698
	minimum = 7
	maximum = 34
Network latency average = 19.698
	minimum = 7
	maximum = 34
Slowest packet = 2830
Flit latency average = 19.7285
	minimum = 7
	maximum = 34
Slowest flit = 2830
Fragmentation average = 0
	minimum = 0
	maximum = 0
Injected packet rate average = 0.0095
	minimum = 0.004 (at node 3)
	maximum = 0.014 (at node 2)
Accepted packet rate average = 0.0094375
	minimum = 0 (at node 0)
	maximum = 0.151 (at node 13)
Injected flit rate average = 0.0095
	minimum = 0.004 (at node 3)
	maximum = 0.014 (at node 2)
Accepted flit rate average= 0.0094375
	minimum = 0 (at node 0)
	maximum = 0.151 (at node 13)
Injected packet length average = 1
Accepted packet length average = 1
Total in-flight flits = 3 (3 measured)
latency change    = 0.00553079
throughput change = 0.00662252
Class 0:
Packet latency average = 19.9209
	minimum = 7
	maximum = 34
Network latency average = 19.9209
	minimum = 7
	maximum = 34
Slowest packet = 2830
Flit latency average = 19.9401
	minimum = 7
	maximum = 34
Slowest flit = 2830
Fragmentation average = 0
	minimum = 0
	maximum = 0
Injected packet rate average = 0.00908333
	minimum = 0.00533333 (at node 3)
	maximum = 0.0133333 (at node 2)
Accepted packet rate average = 0.00904167
	minimum = 0 (at node 0)
	maximum = 0.144667 (at node 13)
Injected flit rate average = 0.00908333
	minimum = 0.00533333 (at node 3)
	maximum = 0.0133333 (at node 2)
Accepted flit rate average= 0.00904167
	minimum = 0 (at node 0)
	maximum = 0.144667 (at node 13)
Injected packet length average = 1
Accepted packet length average = 1
Total in-flight flits = 3 (3 measured)
latency change    = 0.0111914
throughput change = 0.0437788
Class 0:
Packet latency average = 19.8345
	minimum = 7
	maximum = 34
Network latency average = 19.8345
	minimum = 7
	maximum = 34
Slowest packet = 2830
Flit latency average = 19.85
	minimum = 7
	maximum = 34
Slowest flit = 2830
Fragmentation average = 0
	minimum = 0
	maximum = 0
Injected packet rate average = 0.008875
	minimum = 0.006 (at node 3)
	maximum = 0.0125 (at node 2)
Accepted packet rate average = 0.00875
	minimum = 0 (at node 0)
	maximum = 0.14 (at node 13)
Injected flit rate average = 0.008875
	minimum = 0.006 (at node 3)
	maximum = 0.0125 (at node 2)
Accepted flit rate average= 0.00875
	minimum = 0 (at node 0)
	maximum = 0.14 (at node 13)
Injected packet length average = 1
Accepted packet length average = 1
Total in-flight flits = 6 (6 measured)
latency change    = 0.00435593
throughput change = 0.0333333
Draining all recorded packets ...
Draining remaining packets ...
Time taken is 3541 cycles
Class 0:
Packet latency average = 19.0759
	minimum = 7
	maximum = 33
Network latency average = 19.0759
	minimum = 7
	maximum = 33
Slowest packet = 3085
Flit latency average = 19.0759
	minimum = 7
	maximum = 33
Slowest flit = 3085
Fragmentation average = 0
	minimum = 0
	maximum = 0
Injected packet rate average = 0.010625
	minimum = 0 (at node 4)
	maximum = 0.022 (at node 12)
Accepted packet rate average = 0.009875
	minimum = 0 (at node 0)
	maximum = 0.158 (at node 13)
Injected flit rate average = 0.010625
	minimum = 0 (at node 4)
	maximum = 0.022 (at node 12)
Accepted flit rate average= 0.009875
	minimum = 0 (at node 0)
	maximum = 0.158 (at node 13)
Injected packet length average = 1
Accepted packet length average = 1
Total in-flight flits = 6 (0 measured)
latency change    = 1
throughput change = 1
Class 0:
Packet latency average = 19.293
	minimum = 7
	maximum = 33
Network latency average = 19.293
	minimum = 7
	maximum = 33
Slowest packet = 3085
Flit latency average = 19.293
	minimum = 7
	maximum = 33
Slowest flit = 3085
Fragmentation average = 0
	minimum = 0
	maximum = 0
Injected packet rate average = 0.01
	minimum = 0.005 (at node 4)
	maximum = 0.019 (at node 12)
Accepted packet rate average = 0.0098125
	minimum = 0 (at node 0)
	maximum = 0.157 (at node 13)
Injected flit rate average = 0.01
	minimum = 0.005 (at node 4)
	maximum = 0.019 (at node 12)
Accepted flit rate average= 0.0098125
	minimum = 0 (at node 0)
	maximum = 0.157 (at node 13)
Injected packet length average = 1
Accepted packet length average = 1
Total in-flight flits = 3 (0 measured)
latency change    = 0.0112499
throughput change = 0.00636943
Class 0:
Packet latency average = 19.1735
	minimum = 7
	maximum = 33
Network latency average = 19.1735
	minimum = 7
	maximum = 33
Slowest packet = 3255
Flit latency average = 19.1735
	minimum = 7
	maximum = 33
Slowest flit = 3255
Fragmentation average = 0
	minimum = 0
	maximum = 0
Injected packet rate average = 0.01225
	minimum = 0.006 (at node 9)
	maximum = 0.024 (at node 15)
Accepted packet rate average = 0.01225
	minimum = 0 (at node 0)
	maximum = 0.196 (at node 13)
Injected flit rate average = 0.01225
	minimum = 0.006 (at node 9)
	maximum = 0.024 (at node 15)
Accepted flit rate average= 0.01225
	minimum = 0 (at node 0)
	maximum = 0.196 (at node 13)
Injected packet length average = 1
Accepted packet length average = 1
Total in-flight flits = 3 (0 measured)
latency change    = 0.00623383
throughput change = 0.19898
Warmed up ...Time used is 1500 cycles
Class 0:
Packet latency average = 20.9259
	minimum = 7
	maximum = 34
Network latency average = 20.9259
	minimum = 7
	maximum = 34
Slowest packet = 3335
Flit latency average = 21.0238
	minimum = 7
	maximum = 34
Slowest flit = 3335
Fragmentation average = 0
	minimum = 0
	maximum = 0
Injected packet rate average = 0.010625
	minimum = 0.004 (at node 13)
	maximum = 0.022 (at node 3)
Accepted packet rate average = 0.0105
	minimum = 0 (at node 0)
	maximum = 0.168 (at node 13)
Injected flit rate average = 0.010625
	minimum = 0.004 (at node 13)
	maximum = 0.022 (at node 3)
Accepted flit rate average= 0.0105
	minimum = 0 (at node 0)
	maximum = 0.168 (at node 13)
Injected packet length average = 1
Accepted packet length average = 1
Total in-flight flits = 4 (4 measured)
latency change    = 0.0837457
throughput change = 0.166667
Class 0:
Packet latency average = 20.628
	minimum = 7
	maximum = 34
Network latency average = 20.628
	minimum = 7
	maximum = 34
Slowest packet = 3335
Flit latency average = 20.6826
	minimum = 7
	maximum = 34
Slowest flit = 3335
Fragmentation average = 0
	minimum = 0
	maximum = 0
Injected packet rate average = 0.010375
	minimum = 0.006 (at node 9)
	maximum = 0.017 (at node 11)
Accepted packet rate average = 0.0104375
	minimum = 0 (at node 0)
	maximum = 0.167 (at node 13)
Injected flit rate average = 0.010375
	minimum = 0.006 (at node 9)
	maximum = 0.017 (at node 11)
Accepted flit rate average= 0.0104375
	minimum = 0 (at node 0)
	maximum = 0.167 (at node 13)
Injected packet length average = 1
Accepted packet length average = 1
Total in-flight flits = 2 (2 measured)
latency change    = 0.0144404
throughput change = 0.00598802
Class 0:
Packet latency average = 20.5772
	minimum = 7
	maximum = 34
Network latency average = 20.5772
	minimum = 7
	maximum = 34
Slowest packet = 3335
Flit latency average = 20.6145
	minimum = 7
	maximum = 34
Slowest flit = 3335
Fragmentation average = 0
	minimum = 0
	maximum = 0
Injected packet rate average = 0.0103333
	minimum = 0.00666667 (at node 9)
	maximum = 0.014 (at node 11)
Accepted packet rate average = 0.010375
	minimum = 0 (at node 0)
	maximum = 0.166 (at node 13)
Injected flit rate average = 0.0103333
	minimum = 0.00666667 (at node 9)
	maximum = 0.014 (at node 11)
Accepted flit rate average= 0.010375
	minimum = 0 (at node 0)
	maximum = 0.166 (at node 13)
Injected packet length average = 1
Accepted packet length average = 1
Total in-flight flits = 2 (2 measured)
latency change    = 0.00246938
throughput change = 0.0060241
Class 0:
Packet latency average = 20.4012
	minimum = 7
	maximum = 37
Network latency average = 20.4012
	minimum = 7
	maximum = 37
Slowest packet = 3618
Flit latency average = 20.4312
	minimum = 7
	maximum = 37
Slowest flit = 3618
Fragmentation average = 0
	minimum = 0
	maximum = 0
Injected packet rate average = 0.0101875
	minimum = 0.0055 (at node 10)
	maximum = 0.0145 (at node 11)
Accepted packet rate average = 0.0102188
	minimum = 0 (at node 0)
	maximum = 0.1635 (at node 13)
Injected flit rate average = 0.0101875
	minimum = 0.0055 (at node 10)
	maximum = 0.0145 (at node 11)
Accepted flit rate average= 0.0102188
	minimum = 0 (at node 0)
	maximum = 0.1635 (at node 13)
Injected packet length average = 1
Accepted packet length average = 1
Total in-flight flits = 2 (2 measured)
latency change    = 0.00862699
throughput change = 0.0152905
Draining all recorded packets ...
Draining remaining packets ...
Time taken is 3524 cycles
Class 0:
Packet latency average = 18.3214
	minimum = 7
	maximum = 32
Network latency average = 18.3214
	minimum = 7
	maximum = 32
Slowest packet = 3710
Flit latency average = 18.3214
	minimum = 7
	maximum = 32
Slowest flit = 3710
Fragmentation average = 0
	minimum = 0
	maximum = 0
Injected packet rate average = 0.01075
	minimum = 0.004 (at node 1)
	maximum = 0.018 (at node 12)
Accepted packet rate average = 0.0105
	minimum = 0 (at node 0)
	maximum = 0.168 (at node 13)
Injected flit rate average = 0.01075
	minimum = 0.004 (at node 1)
	maximum = 0.018 (at node 12)
Accepted flit rate average= 0.0105
	minimum = 0 (at node 0)
	maximum = 0.168 (at node 13)
Injected packet length average = 1
Accepted packet length average = 1
Total in-flight flits = 2 (0 measured)
latency change    = 1
throughput change = 1
Class 0:
Packet latency average = 18.9308
	minimum = 7
	maximum = 32
Network latency average = 18.9308
	minimum = 7
	maximum = 32
Slowest packet = 3710
Flit latency average = 18.9308
	minimum = 7
	maximum = 32
Slowest flit = 3710
Fragmentation average = 0
	minimum = 0
	maximum = 0
Injected packet rate average = 0.010375
	minimum = 0.003 (at node 1)
	maximum = 0.016 (at node 12)
Accepted packet rate average = 0.0099375
	minimum = 0 (at node 0)
	maximum = 0.159 (at node 13)
Injected flit rate average = 0.010375
	minimum = 0.003 (at node 1)
	maximum = 0.016 (at node 12)
Accepted flit rate average= 0.0099375
	minimum = 0 (at node 0)
	maximum = 0.159 (at node 13)
Injected packet length average = 1
Accepted packet length average = 1
Total in-flight flits = 7 (0 measured)
latency change    = 0.0321903
throughput change = 0.0566038
Class 0:
Packet latency average = 17.9688
	minimum = 7
	maximum = 32
Network latency average = 17.9688
	minimum = 7
	maximum = 32
Slowest packet = 3816
Flit latency average = 17.9688
	minimum = 7
	maximum = 32
Slowest flit = 3816
Fragmentation average = 0
	minimum = 0
	maximum = 0
Injected packet rate average = 0.007375
	minimum = 0 (at node 0)
	maximum = 0.016 (at node 4)
Accepted packet rate average = 0.008
	minimum = 0 (at node 0)
	maximum = 0.128 (at node 13)
Injected flit rate average = 0.007375
	minimum = 0 (at node 0)
	maximum = 0.016 (at node 4)
Accepted flit rate average= 0.008
	minimum = 0 (at node 0)
	maximum = 0.128 (at node 13)
Injected packet length average = 1
Accepted packet length average = 1
Total in-flight flits = 2 (0 measured)
latency change    = 0.0535412
throughput change = 0.242188
Warmed up ...Time used is 1500 cycles
Class 0:
Packet latency average = 19.8485
	minimum = 7
	maximum = 33
Network latency average = 19.8485
	minimum = 7
	maximum = 33
Slowest packet = 3927
Flit latency average = 20.0588
	minimum = 7
	maximum = 33
Slowest flit = 3927
Fragmentation average = 0
	minimum = 0
	maximum = 0
Injected packet rate average = 0.0085
	minimum = 0.002 (at node 14)
	maximum = 0.016 (at node 11)
Accepted packet rate average = 0.0085
	minimum = 0 (at node 0)
	maximum = 0.136 (at node 13)
Injected flit rate average = 0.0085
	minimum = 0.002 (at node 14)
	maximum = 0.016 (at node 11)
Accepted flit rate average= 0.0085
	minimum = 0 (at node 0)
	maximum = 0.136 (at node 13)
Injected packet length average = 1
Accepted packet length average = 1
Total in-flight flits = 2 (2 measured)
latency change    = 0.0947042
throughput change = 0.0588235
Class 0:
Packet latency average = 19.4306
	minimum = 7
	maximum = 33
Network latency average = 19.4306
	minimum = 7
	maximum = 33
Slowest packet = 3927
Flit latency average = 19.5342
	minimum = 7
	maximum = 33
Slowest flit = 3927
Fragmentation average = 0
	minimum = 0
	maximum = 0
Injected packet rate average = 0.00925
	minimum = 0.005 (at node 5)
	maximum = 0.015 (at node 15)
Accepted packet rate average = 0.009125
	minimum = 0 (at node 0)
	maximum = 0.146 (at node 13)
Injected flit rate average = 0.00925
	minimum = 0.005 (at node 5)
	maximum = 0.015 (at node 15)
Accepted flit rate average= 0.009125
	minimum = 0 (at node 0)
	maximum = 0.146 (at node 13)
Injected packet length average = 1
Accepted packet length average = 1
Total in-flight flits = 4 (4 measured)
latency change    = 0.0215089
throughput change = 0.0684932
Class 0:
Packet latency average = 19.1636
	minimum = 7
	maximum = 33
Network latency average = 19.1636
	minimum = 7
	maximum = 33
Slowest packet = 3927
Flit latency average = 19.2342
	minimum = 7
	maximum = 33
Slowest flit = 3927
Fragmentation average = 0
	minimum = 0
	maximum = 0
Injected packet rate average = 0.00929167
	minimum = 0.00333333 (at node 5)
	maximum = 0.0133333 (at node 12)
Accepted packet rate average = 0.00925
	minimum = 0 (at node 0)
	maximum = 0.148 (at node 13)
Injected flit rate average = 0.00929167
	minimum = 0.00333333 (at node 5)
	maximum = 0.0133333 (at node 12)
Accepted flit rate average= 0.00925
	minimum = 0 (at node 0)
	maximum = 0.148 (at node 13)
Injected packet length average = 1
Accepted packet length average = 1
Total in-flight flits = 3 (3 measured)
latency change    = 0.0139284
throughput change = 0.0135135
Class 0:
Packet latency average = 19.4742
	minimum = 7
	maximum = 36
Network latency average = 19.4742
	minimum = 7
	maximum = 36
Slowest packet = 4116
Flit latency average = 19.5224
	minimum = 7
	maximum = 36
Slowest flit = 4116
Fragmentation average = 0
	minimum = 0
	maximum = 0
Injected packet rate average = 0.00975
	minimum = 0.004 (at node 5)
	maximum = 0.013 (at node 15)
Accepted packet rate average = 0.00975
	minimum = 0 (at node 0)
	maximum = 0.156 (at node 13)
Injected flit rate average = 0.00975
	minimum = 0.004 (at node 5)
	maximum = 0.013 (at node 15)
Accepted flit rate average= 0.00975
	minimum = 0 (at node 0)
	maximum = 0.156 (at node 13)
Injected packet length average = 1
Accepted packet length average = 1
Total in-flight flits = 2 (2 measured)
latency change    = 0.0159471
throughput change = 0.0512821
Class 0:
Packet latency average = 19.9213
	minimum = 7
	maximum = 36
Network latency average = 19.9213
	minimum = 7
	maximum = 36
Slowest packet = 4116
Flit latency average = 19.9571
	minimum = 7
	maximum = 36
Slowest flit = 4116
Fragmentation average = 0
	minimum = 0
	maximum = 0
Injected packet rate average = 0.00995
	minimum = 0.0044 (at node 5)
	maximum = 0.0132 (at node 15)
Accepted packet rate average = 0.0099
	minimum = 0 (at node 0)
	maximum = 0.1584 (at node 13)
Injected flit rate average = 0.00995
	minimum = 0.0044 (at node 5)
	maximum = 0.0132 (at node 15)
Accepted flit rate average= 0.0099
	minimum = 0 (at node 0)
	maximum = 0.1584 (at node 13)
Injected packet length average = 1
Accepted packet length average = 1
Total in-flight flits = 4 (4 measured)
latency change    = 0.0224446
throughput change = 0.0151515
Class 0:
Packet latency average = 19.9386
	minimum = 7
	maximum = 36
Network latency average = 19.9386
	minimum = 7
	maximum = 36
Slowest packet = 4116
Flit latency average = 19.9684
	minimum = 7
	maximum = 36
Slowest flit = 4116
Fragmentation average = 0
	minimum = 0
	maximum = 0
Injected packet rate average = 0.00983333
	minimum = 0.00533333 (at node 5)
	maximum = 0.0126667 (at node 15)
Accepted packet rate average = 0.009875
	minimum = 0 (at node 0)
	maximum = 0.158 (at node 13)
Injected flit rate average = 0.00983333
	minimum = 0.00533333 (at node 5)
	maximum = 0.0126667 (at node 15)
Accepted flit rate average= 0.009875
	minimum = 0 (at node 0)
	maximum = 0.158 (at node 13)
Injected packet length average = 1
Accepted packet length average = 1
Total in-flight flits = 0 (0 measured)
latency change    = 0.000864632
throughput change = 0.00253165
Class 0:
Packet latency average = 19.8602
	minimum = 7
	maximum = 36
Network latency average = 19.8602
	minimum = 7
	maximum = 36
Slowest packet = 4116
Flit latency average = 19.8854
	minimum = 7
	maximum = 36
Slowest flit = 4116
Fragmentation average = 0
	minimum = 0
	maximum = 0
Injected packet rate average = 0.0101607
	minimum = 0.006 (at node 5)
	maximum = 0.0134286 (at node 15)
Accepted packet rate average = 0.010125
	minimum = 0 (at node 0)
	maximum = 0.162 (at node 13)
Injected flit rate average = 0.0101607
	minimum = 0.006 (at node 5)
	maximum = 0.0134286 (at node 15)
Accepted flit rate average= 0.010125
	minimum = 0 (at node 0)
	maximum = 0.162 (at node 13)
Injected packet length average = 1
Accepted packet length average = 1
Total in-flight flits = 4 (4 measured)
latency change    = 0.00394671
throughput change = 0.0246914
Draining all recorded packets ...
Draining remaining packets ...
Time taken is 5038 cycles
Class 0:
Packet latency average = 20.7125
	minimum = 7
	maximum = 32
Network latency average = 20.7125
	minimum = 7
	maximum = 32
Slowest packet = 4470
Flit latency average = 20.7125
	minimum = 7
	maximum = 32
Slowest flit = 4470
Fragmentation average = 0
	minimum = 0
	maximum = 0
Injected packet rate average = 0.01
	minimum = 0 (at node 9)
	maximum = 0.016 (at node 3)
Accepted packet rate average = 0.01
	minimum = 0 (at node 0)
	maximum = 0.16 (at node 13)
Injected flit rate average = 0.01
	minimum = 0 (at node 9)
	maximum = 0.016 (at node 3)
Accepted flit rate average= 0.01
	minimum = 0 (at node 0)
	maximum = 0.16 (at node 13)
Injected packet length average = 1
Accepted packet length average = 1
Total in-flight flits = 0 (0 measured)
latency change    = 1
throughput change = 1
Class 0:
Packet latency average = 19.9716
	minimum = 7
	maximum = 32
Network latency average = 19.9716
	minimum = 7
	maximum = 32
Slowest packet = 4470
Flit latency average = 19.9716
	minimum = 7
	maximum = 32
Slowest flit = 4470
Fragmentation average = 0
	minimum = 0
	maximum = 0
Injected packet rate average = 0.0110625
	minimum = 0.004 (at node 7)
	maximum = 0.018 (at node 10)
Accepted packet rate average = 0.011
	minimum = 0 (at node 0)
	maximum = 0.176 (at node 13)
Injected flit rate average = 0.0110625
	minimum = 0.004 (at node 7)
	maximum = 0.018 (at node 10)
Accepted flit rate average= 0.011
	minimum = 0 (at node 0)
	maximum = 0.176 (at node 13)
Injected packet length average = 1
Accepted packet length average = 1
Total in-flight flits = 1 (0 measured)
latency change    = 0.0370982
throughput change = 0.0909091
Class 0:
Packet latency average = 20.2394
	minimum = 7
	maximum = 32
Network latency average = 20.2394
	minimum = 7
	maximum = 32
Slowest packet = 4655
Flit latency average = 20.2394
	minimum = 7
	maximum = 32
Slowest flit = 4655
Fragmentation average = 0
	minimum = 0
	maximum = 0
Injected packet rate average = 0.00925
	minimum = 0.004 (at node 1)
	maximum = 0.018 (at node 11)
Accepted packet rate average = 0.008875
	minimum = 0 (at node 0)
	maximum = 0.142 (at node 13)
Injected flit rate average = 0.00925
	minimum = 0.004 (at node 1)
	maximum = 0.018 (at node 11)
Accepted flit rate average= 0.008875
	minimum = 0 (at node 0)
	maximum = 0.142 (at node 13)
Injected packet length average = 1
Accepted packet length average = 1
Total in-flight flits = 4 (0 measured)
latency change    = 0.0132339
throughput change = 0.239437
Warmed up ...Time used is 1500 cycles
Class 0:
Packet latency average = 20.8734
	minimum = 12
	maximum = 35
Network latency average = 20.8734
	minimum = 12
	maximum = 35
Slowest packet = 4774
Flit latency average = 21.012
	minimum = 12
	maximum = 35
Slowest flit = 4774
Fragmentation average = 0
	minimum = 0
	maximum = 0
Injected packet rate average = 0.010125
	minimum = 0 (at node 13)
	maximum = 0.018 (at node 4)
Accepted packet rate average = 0.010375
	minimum = 0 (at node 0)
	maximum = 0.166 (at node 13)
Injected flit rate average = 0.010125
	minimum = 0 (at node 13)
	maximum = 0.018 (at node 4)
Accepted flit rate average= 0.010375
	minimum = 0 (at node 0)
	maximum = 0.166 (at node 13)
Injected packet length average = 1
Accepted packet length average = 1
Total in-flight flits = 2 (2 measured)
latency change    = 0.0303727
throughput change = 0.144578
Class 0:
Packet latency average = 20.3742
	minimum = 7
	maximum = 35
Network latency average = 20.3742
	minimum = 7
	maximum = 35
Slowest packet = 4774
Flit latency average = 20.4551
	minimum = 7
	maximum = 35
Slowest flit = 4774
Fragmentation average = 0
	minimum = 0
	maximum = 0
Injected packet rate average = 0.010375
	minimum = 0.003 (at node 13)
	maximum = 0.016 (at node 4)
Accepted packet rate average = 0.0104375
	minimum = 0 (at node 0)
	maximum = 0.167 (at node 13)
Injected flit rate average = 0.010375
	minimum = 0.003 (at node 13)
	maximum = 0.016 (at node 4)
Accepted flit rate average= 0.0104375
	minimum = 0 (at node 0)
	maximum = 0.167 (at node 13)
Injected packet length average = 1
Accepted packet length average = 1
Total in-flight flits = 3 (3 measured)
latency change    = 0.0245008
throughput change = 0.00598802
Class 0:
Packet latency average = 20.1737
	minimum = 7
	maximum = 36
Network latency average = 20.1737
	minimum = 7
	maximum = 36
Slowest packet = 4892
Flit latency average = 20.2333
	minimum = 7
	maximum = 36
Slowest flit = 4892
Fragmentation average = 0
	minimum = 0
	maximum = 0
Injected packet rate average = 0.0100417
	minimum = 0.00533333 (at node 13)
	maximum = 0.0146667 (at node 8)
Accepted packet rate average = 0.01
	minimum = 0 (at node 0)
	maximum = 0.16 (at node 13)
Injected flit rate average = 0.0100417
	minimum = 0.00533333 (at node 13)
	maximum = 0.0146667 (at node 8)
Accepted flit rate average= 0.01
	minimum = 0 (at node 0)
	maximum = 0.16 (at node 13)
Injected packet length average = 1
Accepted packet length average = 1
Total in-flight flits = 5 (5 measured)
latency change    = 0.00993888
throughput change = 0.04375
Class 0:
Packet latency average = 19.9939
	minimum = 7
	maximum = 36
Network latency average = 19.9939
	minimum = 7
	maximum = 36
Slowest packet = 4892
Flit latency average = 20.0389
	minimum = 7
	maximum = 36
Slowest flit = 4892
Fragmentation average = 0
	minimum = 0
	maximum = 0
Injected packet rate average = 0.0103438
	minimum = 0.0055 (at node 13)
	maximum = 0.013 (at node 8)
Accepted packet rate average = 0.0104375
	minimum = 0 (at node 0)
	maximum = 0.167 (at node 13)
Injected flit rate average = 0.0103438
	minimum = 0.0055 (at node 13)
	maximum = 0.013 (at node 8)
Accepted flit rate average= 0.0104375
	minimum = 0 (at node 0)
	maximum = 0.167 (at node 13)
Injected packet length average = 1
Accepted packet length average = 1
Total in-flight flits = 1 (1 measured)
latency change    = 0.0089922
throughput change = 0.0419162
Draining all recorded packets ...
Draining remaining packets ...
Time taken is 3527 cycles
Class 0:
Packet latency average = 18.5614
	minimum = 7
	maximum = 32
Network latency average = 18.5614
	minimum = 7
	maximum = 32
Slowest packet = 5039
Flit latency average = 18.5614
	minimum = 7
	maximum = 32
Slowest flit = 5039
Fragmentation average = 0
	minimum = 0
	maximum = 0
Injected packet rate average = 0.007625
	minimum = 0 (at node 7)
	maximum = 0.014 (at node 4)
Accepted packet rate average = 0.007125
	minimum = 0 (at node 0)
	maximum = 0.114 (at node 13)
Injected flit rate average = 0.007625
	minimum = 0 (at node 7)
	maximum = 0.014 (at node 4)
Accepted flit rate average= 0.007125
	minimum = 0 (at node 0)
	maximum = 0.114 (at node 13)
Injected packet length average = 1
Accepted packet length average = 1
Total in-flight flits = 4 (0 measured)
latency change    = 1
throughput change = 1
Class 0:
Packet latency average = 18.2192
	minimum = 7
	maximum = 33
Network latency average = 18.2192
	minimum = 7
	maximum = 33
Slowest packet = 5136
Flit latency average = 18.2192
	minimum = 7
	maximum = 33
Slowest flit = 5136
Fragmentation average = 0
	minimum = 0
	maximum = 0
Injected packet rate average = 0.0093125
	minimum = 0.002 (at node 0)
	maximum = 0.016 (at node 9)
Accepted packet rate average = 0.009125
	minimum = 0 (at node 0)
	maximum = 0.146 (at node 13)
Injected flit rate average = 0.0093125
	minimum = 0.002 (at node 0)
	maximum = 0.016 (at node 9)
Accepted flit rate average= 0.009125
	minimum = 0 (at node 0)
	maximum = 0.146 (at node 13)
Injected packet length average = 1
Accepted packet length average = 1
Total in-flight flits = 3 (0 measured)
latency change    = 0.0187838
throughput change = 0.219178
Class 0:
Packet latency average = 19.8778
	minimum = 7
	maximum = 33
Network latency average = 19.8778
	minimum = 7
	maximum = 33
Slowest packet = 5225
Flit latency average = 19.8778
	minimum = 7
	maximum = 33
Slowest flit = 5225
Fragmentation average = 0
	minimum = 0
	maximum = 0
Injected packet rate average = 0.01125
	minimum = 0.006 (at node 0)
	maximum = 0.018 (at node 3)
Accepted packet rate average = 0.01125
	minimum = 0 (at node 0)
	maximum = 0.18 (at node 13)
Injected flit rate average = 0.01125
	minimum = 0.006 (at node 0)
	maximum = 0.018 (at node 3)
Accepted flit rate average= 0.01125
	minimum = 0 (at node 0)
	maximum = 0.18 (at node 13)
Injected packet length average = 1
Accepted packet length average = 1
Total in-flight flits = 3 (0 measured)
latency change    = 0.0834399
throughput change = 0.188889
Warmed up ...Time used is 1500 cycles
Class 0:
Packet latency average = 18.7397
	minimum = 7
	maximum = 32
Network latency average = 18.7397
	minimum = 7
	maximum = 32
Slowest packet = 5290
Flit latency average = 19
	minimum = 7
	maximum = 32
Slowest flit = 5275
Fragmentation average = 0
	minimum = 0
	maximum = 0
Injected packet rate average = 0.00975
	minimum = 0.002 (at node 0)
	maximum = 0.018 (at node 11)
Accepted packet rate average = 0.0095
	minimum = 0 (at node 0)
	maximum = 0.152 (at node 13)
Injected flit rate average = 0.00975
	minimum = 0.002 (at node 0)
	maximum = 0.018 (at node 11)
Accepted flit rate average= 0.0095
	minimum = 0 (at node 0)
	maximum = 0.152 (at node 13)
Injected packet length average = 1
Accepted packet length average = 1
Total in-flight flits = 5 (5 measured)
latency change    = 0.0607294
throughput change = 0.184211
Class 0:
Packet latency average = 20.106
	minimum = 7
	maximum = 34
Network latency average = 20.106
	minimum = 7
	maximum = 34
Slowest packet = 5402
Flit latency average = 20.2078
	minimum = 7
	maximum = 34
Slowest flit = 5402
Fragmentation average = 0
	minimum = 0
	maximum = 0
Injected packet rate average = 0.0095
	minimum = 0.006 (at node 0)
	maximum = 0.016 (at node 11)
Accepted packet rate average = 0.009625
	minimum = 0 (at node 0)
	maximum = 0.154 (at node 13)
Injected flit rate average = 0.0095
	minimum = 0.006 (at node 0)
	maximum = 0.016 (at node 11)
Accepted flit rate average= 0.009625
	minimum = 0 (at node 0)
	maximum = 0.154 (at node 13)
Injected packet length average = 1
Accepted packet length average = 1
Total in-flight flits = 1 (1 measured)
latency change    = 0.0679517
throughput change = 0.012987
Class 0:
Packet latency average = 20.513
	minimum = 7
	maximum = 34
Network latency average = 20.513
	minimum = 7
	maximum = 34
Slowest packet = 5402
Flit latency average = 20.5751
	minimum = 7
	maximum = 34
Slowest flit = 5402
Fragmentation average = 0
	minimum = 0
	maximum = 0
Injected packet rate average = 0.00975
	minimum = 0.006 (at node 14)
	maximum = 0.018 (at node 11)
Accepted packet rate average = 0.00970833
	minimum = 0 (at node 0)
	maximum = 0.155333 (at node 13)
Injected flit rate average = 0.00975
	minimum = 0.006 (at node 14)
	maximum = 0.018 (at node 11)
Accepted flit rate average= 0.00970833
	minimum = 0 (at node 0)
	maximum = 0.155333 (at node 13)
Injected packet length average = 1
Accepted packet length average = 1
Total in-flight flits = 4 (4 measured)
latency change    = 0.0198451
throughput change = 0.00858369
Class 0:
Packet latency average = 20.38
	minimum = 7
	maximum = 34
Network latency average = 20.38
	minimum = 7
	maximum = 34
Slowest packet = 5402
Flit latency average = 20.429
	minimum = 7
	maximum = 34
Slowest flit = 5402
Fragmentation average = 0
	minimum = 0
	maximum = 0
Injected packet rate average = 0.0095
	minimum = 0.0065 (at node 12)
	maximum = 0.0165 (at node 11)
Accepted packet rate average = 0.00946875
	minimum = 0 (at node 0)
	maximum = 0.1515 (at node 13)
Injected flit rate average = 0.0095
	minimum = 0.0065 (at node 12)
	maximum = 0.0165 (at node 11)
Accepted flit rate average= 0.00946875
	minimum = 0 (at node 0)
	maximum = 0.1515 (at node 13)
Injected packet length average = 1
Accepted packet length average = 1
Total in-flight flits = 4 (4 measured)
latency change    = 0.00652814
throughput change = 0.0253025
Class 0:
Packet latency average = 20.1536
	minimum = 7
	maximum = 34
Network latency average = 20.1536
	minimum = 7
	maximum = 34
Slowest packet = 5402
Flit latency average = 20.1938
	minimum = 7
	maximum = 34
Slowest flit = 5402
Fragmentation average = 0
	minimum = 0
	maximum = 0
Injected packet rate average = 0.009675
	minimum = 0.0068 (at node 3)
	maximum = 0.0156 (at node 11)
Accepted packet rate average = 0.009675
	minimum = 0 (at node 0)
	maximum = 0.1548 (at node 13)
Injected flit rate average = 0.009675
	minimum = 0.0068 (at node 3)
	maximum = 0.0156 (at node 11)
Accepted flit rate average= 0.009675
	minimum = 0 (at node 0)
	maximum = 0.1548 (at node 13)
Injected packet length average = 1
Accepted packet length average = 1
Total in-flight flits = 3 (3 measured)
latency change    = 0.0112314
throughput change = 0.0213178
Draining all recorded packets ...
Draining remaining packets ...
Time taken is 4049 cycles
Class 0:
Packet latency average = 19.5797
	minimum = 7
	maximum = 32
Network latency average = 19.5797
	minimum = 7
	maximum = 32
Slowest packet = 5685
Flit latency average = 19.5797
	minimum = 7
	maximum = 32
Slowest flit = 5685
Fragmentation average = 0
	minimum = 0
	maximum = 0
Injected packet rate average = 0.009125
	minimum = 0.002 (at node 0)
	maximum = 0.018 (at node 10)
Accepted packet rate average = 0.008625
	minimum = 0 (at node 0)
	maximum = 0.138 (at node 13)
Injected flit rate average = 0.009125
	minimum = 0.002 (at node 0)
	maximum = 0.018 (at node 10)
Accepted flit rate average= 0.008625
	minimum = 0 (at node 0)
	maximum = 0.138 (at node 13)
Injected packet length average = 1
Accepted packet length average = 1
Total in-flight flits = 4 (0 measured)
latency change    = 1
throughput change = 1
Class 0:
Packet latency average = 20.0403
	minimum = 7
	maximum = 34
Network latency average = 20.0403
	minimum = 7
	maximum = 34
Slowest packet = 5750
Flit latency average = 20.0403
	minimum = 7
	maximum = 34
Slowest flit = 5750
Fragmentation average = 0
	minimum = 0
	maximum = 0
Injected packet rate average = 0.009375
	minimum = 0.006 (at node 0)
	maximum = 0.015 (at node 10)
Accepted packet rate average = 0.0093125
	minimum = 0 (at node 0)
	maximum = 0.149 (at node 13)
Injected flit rate average = 0.009375
	minimum = 0.006 (at node 0)
	maximum = 0.015 (at node 10)
Accepted flit rate average= 0.0093125
	minimum = 0 (at node 0)
	maximum = 0.149 (at node 13)
Injected packet length average = 1
Accepted packet length average = 1
Total in-flight flits = 1 (0 measured)
latency change    = 0.0229816
throughput change = 0.0738255
Class 0:
Packet latency average = 19.3143
	minimum = 7
	maximum = 32
Network latency average = 19.3143
	minimum = 7
	maximum = 32
Slowest packet = 5819
Flit latency average = 19.3143
	minimum = 7
	maximum = 32
Slowest flit = 5819
Fragmentation average = 0
	minimum = 0
	maximum = 0
Injected packet rate average = 0.00875
	minimum = 0 (at node 6)
	maximum = 0.016 (at node 15)
Accepted packet rate average = 0.00875
	minimum = 0 (at node 0)
	maximum = 0.14 (at node 13)
Injected flit rate average = 0.00875
	minimum = 0 (at node 6)
	maximum = 0.016 (at node 15)
Accepted flit rate average= 0.00875
	minimum = 0 (at node 0)
	maximum = 0.14 (at node 13)
Injected packet length average = 1
Accepted packet length average = 1
Total in-flight flits = 1 (0 measured)
latency change    = 0.0375879
throughput change = 0.0642857
Warmed up ...Time used is 1500 cycles
Class 0:
Packet latency average = 20.4416
	minimum = 7
	maximum = 32
Network latency average = 20.4416
	minimum = 7
	maximum = 32
Slowest packet = 5908
Flit latency average = 20.5897
	minimum = 7
	maximum = 32
Slowest flit = 5888
Fragmentation average = 0
	minimum = 0
	maximum = 0
Injected packet rate average = 0.010125
	minimum = 0.002 (at node 12)
	maximum = 0.02 (at node 7)
Accepted packet rate average = 0.00975
	minimum = 0 (at node 0)
	maximum = 0.156 (at node 13)
Injected flit rate average = 0.010125
	minimum = 0.002 (at node 12)
	maximum = 0.02 (at node 7)
Accepted flit rate average= 0.00975
	minimum = 0 (at node 0)
	maximum = 0.156 (at node 13)
Injected packet length average = 1
Accepted packet length average = 1
Total in-flight flits = 4 (4 measured)
latency change    = 0.0551461
throughput change = 0.102564
Class 0:
Packet latency average = 20.25
	minimum = 7
	maximum = 32
Network latency average = 20.25
	minimum = 7
	maximum = 32
Slowest packet = 5908
Flit latency average = 20.3248
	minimum = 7
	maximum = 32
Slowest flit = 5888
Fragmentation average = 0
	minimum = 0
	maximum = 0
Injected packet rate average = 0.0099375
	minimum = 0.005 (at node 6)
	maximum = 0.018 (at node 7)
Accepted packet rate average = 0.0098125
	minimum = 0 (at node 0)
	maximum = 0.157 (at node 13)
Injected flit rate average = 0.0099375
	minimum = 0.005 (at node 6)
	maximum = 0.018 (at node 7)
Accepted flit rate average= 0.0098125
	minimum = 0 (at node 0)
	maximum = 0.157 (at node 13)
Injected packet length average = 1
Accepted packet length average = 1
Total in-flight flits = 3 (3 measured)
latency change    = 0.00945968
throughput change = 0.00636943
Class 0:
Packet latency average = 20.2692
	minimum = 7
	maximum = 32
Network latency average = 20.2692
	minimum = 7
	maximum = 32
Slowest packet = 5908
Flit latency average = 20.3191
	minimum = 7
	maximum = 32
Slowest flit = 5888
Fragmentation average = 0
	minimum = 0
	maximum = 0
Injected packet rate average = 0.00983333
	minimum = 0.00666667 (at node 11)
	maximum = 0.016 (at node 7)
Accepted packet rate average = 0.00979167
	minimum = 0 (at node 0)
	maximum = 0.156667 (at node 13)
Injected flit rate average = 0.00983333
	minimum = 0.00666667 (at node 11)
	maximum = 0.016 (at node 7)
Accepted flit rate average= 0.00979167
	minimum = 0 (at node 0)
	maximum = 0.156667 (at node 13)
Injected packet length average = 1
Accepted packet length average = 1
Total in-flight flits = 2 (2 measured)
latency change    = 0.000948767
throughput change = 0.00212766
Class 0:
Packet latency average = 20.4079
	minimum = 7
	maximum = 33
Network latency average = 20.4079
	minimum = 7
	maximum = 33
Slowest packet = 6184
Flit latency average = 20.4459
	minimum = 7
	maximum = 33
Slowest flit = 6184
Fragmentation average = 0
	minimum = 0
	maximum = 0
Injected packet rate average = 0.00959375
	minimum = 0.006 (at node 12)
	maximum = 0.013 (at node 0)
Accepted packet rate average = 0.00953125
	minimum = 0 (at node 0)
	maximum = 0.1525 (at node 13)
Injected flit rate average = 0.00959375
	minimum = 0.006 (at node 12)
	maximum = 0.013 (at node 0)
Accepted flit rate average= 0.00953125
	minimum = 0 (at node 0)
	maximum = 0.1525 (at node 13)
Injected packet length average = 1
Accepted packet length average = 1
Total in-flight flits = 3 (3 measured)
latency change    = 0.00679462
throughput change = 0.0273224
Draining all recorded packets ...
Draining remaining packets ...
Time taken is 3542 cycles
Class 0:
Packet latency average = 20.7049
	minimum = 7
	maximum = 35
Network latency average = 20.7049
	minimum = 7
	maximum = 35
Slowest packet = 6229
Flit latency average = 20.7049
	minimum = 7
	maximum = 35
Slowest flit = 6229
Fragmentation average = 0
	minimum = 0
	maximum = 0
Injected packet rate average = 0.00825
	minimum = 0 (at node 15)
	maximum = 0.016 (at node 0)
Accepted packet rate average = 0.007625
	minimum = 0 (at node 0)
	maximum = 0.122 (at node 13)
Injected flit rate average = 0.00825
	minimum = 0 (at node 15)
	maximum = 0.016 (at node 0)
Accepted flit rate average= 0.007625
	minimum = 0 (at node 0)
	maximum = 0.122 (at node 13)
Injected packet length average = 1
Accepted packet length average = 1
Total in-flight flits = 5 (0 measured)
latency change    = 1
throughput change = 1
Class 0:
Packet latency average = 20.2185
	minimum = 7
	maximum = 35
Network latency average = 20.2185
	minimum = 7
	maximum = 35
Slowest packet = 6229
Flit latency average = 20.2185
	minimum = 7
	maximum = 35
Slowest flit = 6229
Fragmentation average = 0
	minimum = 0
	maximum = 0
Injected packet rate average = 0.009625
	minimum = 0.003 (at node 15)
	maximum = 0.018 (at node 0)
Accepted packet rate average = 0.0094375
	minimum = 0 (at node 0)
	maximum = 0.151 (at node 13)
Injected flit rate average = 0.009625
	minimum = 0.003 (at node 15)
	maximum = 0.018 (at node 0)
Accepted flit rate average= 0.0094375
	minimum = 0 (at node 0)
	maximum = 0.151 (at node 13)
Injected packet length average = 1
Accepted packet length average = 1
Total in-flight flits = 3 (0 measured)
latency change    = 0.0240559
throughput change = 0.192053
Class 0:
Packet latency average = 19.5
	minimum = 12
	maximum = 33
Network latency average = 19.5
	minimum = 12
	maximum = 33
Slowest packet = 6392
Flit latency average = 19.5
	minimum = 12
	maximum = 33
Slowest flit = 6392
Fragmentation average = 0
	minimum = 0
	maximum = 0
Injected packet rate average = 0.009875
	minimum = 0 (at node 13)
	maximum = 0.018 (at node 10)
Accepted packet rate average = 0.01
	minimum = 0 (at node 0)
	maximum = 0.16 (at node 13)
Injected flit rate average = 0.009875
	minimum = 0 (at node 13)
	maximum = 0.018 (at node 10)
Accepted flit rate average= 0.01
	minimum = 0 (at node 0)
	maximum = 0.16 (at node 13)
Injected packet length average = 1
Accepted packet length average = 1
Total in-flight flits = 2 (0 measured)
latency change    = 0.0368484
throughput change = 0.05625
Warmed up ...Time used is 1500 cycles
Class 0:
Packet latency average = 19.1774
	minimum = 7
	maximum = 34
Network latency average = 19.1774
	minimum = 7
	maximum = 34
Slowest packet = 6469
Flit latency average = 19.4219
	minimum = 7
	maximum = 34
Slowest flit = 6469
Fragmentation average = 0
	minimum = 0
	maximum = 0
Injected packet rate average = 0.008625
	minimum = 0.002 (at node 14)
	maximum = 0.016 (at node 13)
Accepted packet rate average = 0.008
	minimum = 0 (at node 0)
	maximum = 0.128 (at node 13)
Injected flit rate average = 0.008625
	minimum = 0.002 (at node 14)
	maximum = 0.016 (at node 13)
Accepted flit rate average= 0.008
	minimum = 0 (at node 0)
	maximum = 0.128 (at node 13)
Injected packet length average = 1
Accepted packet length average = 1
Total in-flight flits = 7 (7 measured)
latency change    = 0.0168209
throughput change = 0.25
Class 0:
Packet latency average = 20.0203
	minimum = 7
	maximum = 34
Network latency average = 20.0203
	minimum = 7
	maximum = 34
Slowest packet = 6469
Flit latency average = 20.1133
	minimum = 7
	maximum = 34
Slowest flit = 6469
Fragmentation average = 0
	minimum = 0
	maximum = 0
Injected packet rate average = 0.009375
	minimum = 0.007 (at node 2)
	maximum = 0.013 (at node 8)
Accepted packet rate average = 0.009375
	minimum = 0 (at node 0)
	maximum = 0.15 (at node 13)
Injected flit rate average = 0.009375
	minimum = 0.007 (at node 2)
	maximum = 0.013 (at node 8)
Accepted flit rate average= 0.009375
	minimum = 0 (at node 0)
	maximum = 0.15 (at node 13)
Injected packet length average = 1
Accepted packet length average = 1
Total in-flight flits = 2 (2 measured)
latency change    = 0.0420999
throughput change = 0.146667
Class 0:
Packet latency average = 19.6667
	minimum = 7
	maximum = 34
Network latency average = 19.6667
	minimum = 7
	maximum = 34
Slowest packet = 6469
Flit latency average = 19.7339
	minimum = 7
	maximum = 34
Slowest flit = 6469
Fragmentation average = 0
	minimum = 0
	maximum = 0
Injected packet rate average = 0.00904167
	minimum = 0.00666667 (at node 6)
	maximum = 0.012 (at node 8)
Accepted packet rate average = 0.00908333
	minimum = 0 (at node 0)
	maximum = 0.145333 (at node 13)
Injected flit rate average = 0.00904167
	minimum = 0.00666667 (at node 6)
	maximum = 0.012 (at node 8)
Accepted flit rate average= 0.00908333
	minimum = 0 (at node 0)
	maximum = 0.145333 (at node 13)
Injected packet length average = 1
Accepted packet length average = 1
Total in-flight flits = 1 (1 measured)
latency change    = 0.0179798
throughput change = 0.0321101
Class 0:
Packet latency average = 19.5869
	minimum = 7
	maximum = 34
Network latency average = 19.5869
	minimum = 7
	maximum = 34
Slowest packet = 6469
Flit latency average = 19.6352
	minimum = 7
	maximum = 34
Slowest flit = 6469
Fragmentation average = 0
	minimum = 0
	maximum = 0
Injected packet rate average = 0.00959375
	minimum = 0.007 (at node 6)
	maximum = 0.012 (at node 8)
Accepted packet rate average = 0.00959375
	minimum = 0 (at node 0)
	maximum = 0.1535 (at node 13)
Injected flit rate average = 0.00959375
	minimum = 0.007 (at node 6)
	maximum = 0.012 (at node 8)
Accepted flit rate average= 0.00959375
	minimum = 0 (at node 0)
	maximum = 0.1535 (at node 13)
Injected packet length average = 1
Accepted packet length average = 1
Total in-flight flits = 2 (2 measured)
latency change    = 0.00407321
throughput change = 0.053203
Class 0:
Packet latency average = 19.7612
	minimum = 7
	maximum = 39
Network latency average = 19.7612
	minimum = 7
	maximum = 39
Slowest packet = 6780
Flit latency average = 19.799
	minimum = 7
	maximum = 39
Slowest flit = 6780
Fragmentation average = 0
	minimum = 0
	maximum = 0
Injected packet rate average = 0.0096
	minimum = 0.0076 (at node 12)
	maximum = 0.0124 (at node 8)
Accepted packet rate average = 0.009575
	minimum = 0 (at node 0)
	maximum = 0.1532 (at node 13)
Injected flit rate average = 0.0096
	minimum = 0.0076 (at node 12)
	maximum = 0.0124 (at node 8)
Accepted flit rate average= 0.009575
	minimum = 0 (at node 0)
	maximum = 0.1532 (at node 13)
Injected packet length average = 1
Accepted packet length average = 1
Total in-flight flits = 3 (3 measured)
latency change    = 0.0088188
throughput change = 0.00195822
Class 0:
Packet latency average = 19.7522
	minimum = 7
	maximum = 39
Network latency average = 19.7522
	minimum = 7
	maximum = 39
Slowest packet = 6780
Flit latency average = 19.7844
	minimum = 7
	maximum = 39
Slowest flit = 6780
Fragmentation average = 0
	minimum = 0
	maximum = 0
Injected packet rate average = 0.00935417
	minimum = 0.007 (at node 12)
	maximum = 0.012 (at node 8)
Accepted packet rate average = 0.009375
	minimum = 0 (at node 0)
	maximum = 0.15 (at node 13)
Injected flit rate average = 0.00935417
	minimum = 0.007 (at node 12)
	maximum = 0.012 (at node 8)
Accepted flit rate average= 0.009375
	minimum = 0 (at node 0)
	maximum = 0.15 (at node 13)
Injected packet length average = 1
Accepted packet length average = 1
Total in-flight flits = 1 (1 measured)
latency change    = 0.000451732
throughput change = 0.0213333
Class 0:
Packet latency average = 19.6161
	minimum = 7
	maximum = 39
Network latency average = 19.6161
	minimum = 7
	maximum = 39
Slowest packet = 6780
Flit latency average = 19.6437
	minimum = 7
	maximum = 39
Slowest flit = 6780
Fragmentation average = 0
	minimum = 0
	maximum = 0
Injected packet rate average = 0.00964286
	minimum = 0.00771429 (at node 12)
	maximum = 0.0125714 (at node 4)
Accepted packet rate average = 0.00957143
	minimum = 0 (at node 0)
	maximum = 0.153143 (at node 13)
Injected flit rate average = 0.00964286
	minimum = 0.00771429 (at node 12)
	maximum = 0.0125714 (at node 4)
Accepted flit rate average= 0.00957143
	minimum = 0 (at node 0)
	maximum = 0.153143 (at node 13)
Injected packet length average = 1
Accepted packet length average = 1
Total in-flight flits = 6 (6 measured)
latency change    = 0.00693957
throughput change = 0.0205224
Draining all recorded packets ...
Draining remaining packets ...
Time taken is 5021 cycles
Class 0:
Packet latency average = 19.4819
	minimum = 7
	maximum = 33
Network latency average = 19.4819
	minimum = 7
	maximum = 33
Slowest packet = 7025
Flit latency average = 19.4819
	minimum = 7
	maximum = 33
Slowest flit = 7025
Fragmentation average = 0
	minimum = 0
	maximum = 0
Injected packet rate average = 0.010625
	minimum = 0.006 (at node 6)
	maximum = 0.018 (at node 4)
Accepted packet rate average = 0.010375
	minimum = 0 (at node 0)
	maximum = 0.166 (at node 13)
Injected flit rate average = 0.010625
	minimum = 0.006 (at node 6)
	maximum = 0.018 (at node 4)
Accepted flit rate average= 0.010375
	minimum = 0 (at node 0)
	maximum = 0.166 (at node 13)
Injected packet length average = 1
Accepted packet length average = 1
Total in-flight flits = 2 (0 measured)
latency change    = 1
throughput change = 1
Class 0:
Packet latency average = 19.4967
	minimum = 7
	maximum = 33
Network latency average = 19.4967
	minimum = 7
	maximum = 33
Slowest packet = 7025
Flit latency average = 19.4967
	minimum = 7
	maximum = 33
Slowest flit = 7025
Fragmentation average = 0
	minimum = 0
	maximum = 0
Injected packet rate average = 0.0096875
	minimum = 0.008 (at node 0)
	maximum = 0.015 (at node 8)
Accepted packet rate average = 0.0094375
	minimum = 0 (at node 0)
	maximum = 0.151 (at node 13)
Injected flit rate average = 0.0096875
	minimum = 0.008 (at node 0)
	maximum = 0.015 (at node 8)
Accepted flit rate average= 0.0094375
	minimum = 0 (at node 0)
	maximum = 0.151 (at node 13)
Injected packet length average = 1
Accepted packet length average = 1
Total in-flight flits = 4 (0 measured)
latency change    = 0.000757105
throughput change = 0.0993377
Class 0:
Packet latency average = 19.2809
	minimum = 7
	maximum = 33
Network latency average = 19.2809
	minimum = 7
	maximum = 33
Slowest packet = 7199
Flit latency average = 19.2809
	minimum = 7
	maximum = 33
Slowest flit = 7199
Fragmentation average = 0
	minimum = 0
	maximum = 0
Injected packet rate average = 0.011125
	minimum = 0.004 (at node 6)
	maximum = 0.022 (at node 15)
Accepted packet rate average = 0.011125
	minimum = 0 (at node 0)
	maximum = 0.178 (at node 13)
Injected flit rate average = 0.011125
	minimum = 0.004 (at node 6)
	maximum = 0.022 (at node 15)
Accepted flit rate average= 0.011125
	minimum = 0 (at node 0)
	maximum = 0.178 (at node 13)
Injected packet length average = 1
Accepted packet length average = 1
Total in-flight flits = 4 (0 measured)
latency change    = 0.0111919
throughput change = 0.151685
Warmed up ...Time used is 1500 cycles
Class 0:
Packet latency average = 20.7237
	minimum = 7
	maximum = 33
Network latency average = 20.7237
	minimum = 7
	maximum = 33
Slowest packet = 7258
Flit latency average = 20.7875
	minimum = 7
	maximum = 33
Slowest flit = 7258
Fragmentation average = 0
	minimum = 0
	maximum = 0
Injected packet rate average = 0.009625
	minimum = 0.004 (at node 7)
	maximum = 0.018 (at node 3)
Accepted packet rate average = 0.01
	minimum = 0 (at node 0)
	maximum = 0.16 (at node 13)
Injected flit rate average = 0.009625
	minimum = 0.004 (at node 7)
	maximum = 0.018 (at node 3)
Accepted flit rate average= 0.01
	minimum = 0 (at node 0)
	maximum = 0.16 (at node 13)
Injected packet length average = 1
Accepted packet length average = 1
Total in-flight flits = 1 (1 measured)
latency change    = 0.0696201
throughput change = 0.1125
Class 0:
Packet latency average = 19.75
	minimum = 7
	maximum = 33
Network latency average = 19.75
	minimum = 7
	maximum = 33
Slowest packet = 7258
Flit latency average = 19.8092
	minimum = 7
	maximum = 33
Slowest flit = 7258
Fragmentation average = 0
	minimum = 0
	maximum = 0
Injected packet rate average = 0.00975
	minimum = 0.005 (at node 7)
	maximum = 0.014 (at node 1)
Accepted packet rate average = 0.0095
	minimum = 0 (at node 0)
	maximum = 0.152 (at node 13)
Injected flit rate average = 0.00975
	minimum = 0.005 (at node 7)
	maximum = 0.014 (at node 1)
Accepted flit rate average= 0.0095
	minimum = 0 (at node 0)
	maximum = 0.152 (at node 13)
Injected packet length average = 1
Accepted packet length average = 1
Total in-flight flits = 8 (8 measured)
latency change    = 0.0493005
throughput change = 0.0526316
Class 0:
Packet latency average = 20.3648
	minimum = 7
	maximum = 35
Network latency average = 20.3648
	minimum = 7
	maximum = 35
Slowest packet = 7438
Flit latency average = 20.3911
	minimum = 7
	maximum = 35
Slowest flit = 7438
Fragmentation average = 0
	minimum = 0
	maximum = 0
Injected packet rate average = 0.010375
	minimum = 0.00533333 (at node 10)
	maximum = 0.0146667 (at node 3)
Accepted packet rate average = 0.0103333
	minimum = 0 (at node 0)
	maximum = 0.165333 (at node 13)
Injected flit rate average = 0.010375
	minimum = 0.00533333 (at node 10)
	maximum = 0.0146667 (at node 3)
Accepted flit rate average= 0.0103333
	minimum = 0 (at node 0)
	maximum = 0.165333 (at node 13)
Injected packet length average = 1
Accepted packet length average = 1
Total in-flight flits = 5 (5 measured)
latency change    = 0.0301872
throughput change = 0.0806452
Class 0:
Packet latency average = 20.0904
	minimum = 7
	maximum = 35
Network latency average = 20.0904
	minimum = 7
	maximum = 35
Slowest packet = 7438
Flit latency average = 20.1131
	minimum = 7
	maximum = 35
Slowest flit = 7438
Fragmentation average = 0
	minimum = 0
	maximum = 0
Injected packet rate average = 0.0104688
	minimum = 0.007 (at node 13)
	maximum = 0.0135 (at node 4)
Accepted packet rate average = 0.0105
	minimum = 0 (at node 0)
	maximum = 0.168 (at node 13)
Injected flit rate average = 0.0104688
	minimum = 0.007 (at node 13)
	maximum = 0.0135 (at node 4)
[...]
Injected packet length average = 1
Accepted packet length average = 1
Total in-flight flits = 5 (0 measured)
latency change    = 1
throughput change = 1
Class 0:
Packet latency average = 19.6
	minimum = 7
	maximum = 32
Network latency average = 19.6
	minimum = 7
	maximum = 32
Slowest packet = 31096
Flit latency average = 19.6
	minimum = 7
	maximum = 32
Slowest flit = 31096
Fragmentation average = 0
	minimum = 0
	maximum = 0
Injected packet rate average = 0.01225
	minimum = 0.007 (at node 12)
	maximum = 0.019 (at node 1)
Accepted packet rate average = 0.011875
	minimum = 0 (at node 0)
	maximum = 0.19 (at node 13)
Injected flit rate average = 0.01225
	minimum = 0.007 (at node 12)
	maximum = 0.019 (at node 1)
Accepted flit rate average= 0.011875
	minimum = 0 (at node 0)
	maximum = 0.19 (at node 13)
Injected packet length average = 1
Accepted packet length average = 1
Total in-flight flits = 6 (0 measured)
latency change    = 0.0306122
throughput change = 0.0842105
Class 0:
Packet latency average = 19.0645
	minimum = 7
	maximum = 32
Network latency average = 19.0645
	minimum = 7
	maximum = 32
Slowest packet = 31285
Flit latency average = 19.0645
	minimum = 7
	maximum = 32
Slowest flit = 31285
Fragmentation average = 0
	minimum = 0
	maximum = 0
Injected packet rate average = 0.00725
	minimum = 0.002 (at node 10)
	maximum = 0.012 (at node 6)
Accepted packet rate average = 0.00775
	minimum = 0 (at node 0)
	maximum = 0.124 (at node 13)
Injected flit rate average = 0.00725
	minimum = 0.002 (at node 10)
	maximum = 0.012 (at node 6)
Accepted flit rate average= 0.00775
	minimum = 0 (at node 0)
	maximum = 0.124 (at node 13)
Injected packet length average = 1
Accepted packet length average = 1
Total in-flight flits = 2 (0 measured)
latency change    = 0.028088
throughput change = 0.532258
Warmed up ...Time used is 1500 cycles
Class 0:
Packet latency average = 19.8
	minimum = 12
	maximum = 32
Network latency average = 19.8
	minimum = 12
	maximum = 32
Slowest packet = 31410
Flit latency average = 19.7922
	minimum = 12
	maximum = 32
Slowest flit = 31410
Fragmentation average = 0
	minimum = 0
	maximum = 0
Injected packet rate average = 0.01
	minimum = 0 (at node 13)
	maximum = 0.02 (at node 10)
Accepted packet rate average = 0.009625
	minimum = 0 (at node 0)
	maximum = 0.154 (at node 13)
Injected flit rate average = 0.01
	minimum = 0 (at node 13)
	maximum = 0.02 (at node 10)
Accepted flit rate average= 0.009625
	minimum = 0 (at node 0)
	maximum = 0.154 (at node 13)
Injected packet length average = 1
Accepted packet length average = 1
Total in-flight flits = 5 (5 measured)
latency change    = 0.0371457
throughput change = 0.194805
Class 0:
Packet latency average = 19.5535
	minimum = 7
	maximum = 33
Network latency average = 19.5535
	minimum = 7
	maximum = 33
Slowest packet = 31471
Flit latency average = 19.5528
	minimum = 7
	maximum = 33
Slowest flit = 31471
Fragmentation average = 0
	minimum = 0
	maximum = 0
Injected packet rate average = 0.0104375
	minimum = 0.006 (at node 8)
	maximum = 0.015 (at node 6)
Accepted packet rate average = 0.0100625
	minimum = 0 (at node 0)
	maximum = 0.161 (at node 13)
Injected flit rate average = 0.0104375
	minimum = 0.006 (at node 8)
	maximum = 0.015 (at node 6)
Accepted flit rate average= 0.0100625
	minimum = 0 (at node 0)
	maximum = 0.161 (at node 13)
Injected packet length average = 1
Accepted packet length average = 1
Total in-flight flits = 8 (8 measured)
latency change    = 0.0126086
throughput change = 0.0434783
Class 0:
Packet latency average = 19.6144
	minimum = 7
	maximum = 35
Network latency average = 19.6144
	minimum = 7
	maximum = 35
Slowest packet = 31502
Flit latency average = 19.6134
	minimum = 7
	maximum = 35
Slowest flit = 31502
Fragmentation average = 0
	minimum = 0
	maximum = 0
Injected packet rate average = 0.0100417
	minimum = 0.00666667 (at node 2)
	maximum = 0.014 (at node 6)
Accepted packet rate average = 0.00991667
	minimum = 0 (at node 0)
	maximum = 0.158667 (at node 13)
Injected flit rate average = 0.0100417
	minimum = 0.00666667 (at node 2)
	maximum = 0.014 (at node 6)
Accepted flit rate average= 0.00991667
	minimum = 0 (at node 0)
	maximum = 0.158667 (at node 13)
Injected packet length average = 1
Accepted packet length average = 1
Total in-flight flits = 5 (5 measured)
latency change    = 0.00310729
throughput change = 0.0147059
Class 0:
Packet latency average = 20.0854
	minimum = 7
	maximum = 35
Network latency average = 20.0854
	minimum = 7
	maximum = 35
Slowest packet = 31502
Flit latency average = 20.0818
	minimum = 7
	maximum = 35
Slowest flit = 31502
Fragmentation average = 0
	minimum = 0
	maximum = 0
Injected packet rate average = 0.0100313
	minimum = 0.006 (at node 8)
	maximum = 0.0135 (at node 6)
Accepted packet rate average = 0.0099375
	minimum = 0 (at node 0)
	maximum = 0.159 (at node 13)
Injected flit rate average = 0.0100313
	minimum = 0.006 (at node 8)
	maximum = 0.0135 (at node 6)
Accepted flit rate average= 0.0099375
	minimum = 0 (at node 0)
	maximum = 0.159 (at node 13)
Injected packet length average = 1
Accepted packet length average = 1
Total in-flight flits = 5 (5 measured)
latency change    = 0.0234516
throughput change = 0.00209644
Draining all recorded packets ...
Draining remaining packets ...
Time taken is 3546 cycles
Class 0:
Packet latency average = 20.2588
	minimum = 7
	maximum = 34
Network latency average = 20.2588
	minimum = 7
	maximum = 34
Slowest packet = 31738
Flit latency average = 20.2588
	minimum = 7
	maximum = 34
Slowest flit = 31738
Fragmentation average = 0
	minimum = 0
	maximum = 0
Injected packet rate average = 0.010625
	minimum = 0.002 (at node 9)
	maximum = 0.02 (at node 15)
Accepted packet rate average = 0.010625
	minimum = 0 (at node 0)
	maximum = 0.17 (at node 13)
Injected flit rate average = 0.010625
	minimum = 0.002 (at node 9)
	maximum = 0.02 (at node 15)
Accepted flit rate average= 0.010625
	minimum = 0 (at node 0)
	maximum = 0.17 (at node 13)
Injected packet length average = 1
Accepted packet length average = 1
Total in-flight flits = 0 (0 measured)
latency change    = 1
throughput change = 1
Class 0:
Packet latency average = 20.4027
	minimum = 7
	maximum = 34
Network latency average = 20.4027
	minimum = 7
	maximum = 34
Slowest packet = 31738
Flit latency average = 20.4027
	minimum = 7
	maximum = 34
Slowest flit = 31738
Fragmentation average = 0
	minimum = 0
	maximum = 0
Injected packet rate average = 0.009375
	minimum = 0.003 (at node 10)
	maximum = 0.015 (at node 1)
Accepted packet rate average = 0.0093125
	minimum = 0 (at node 0)
	maximum = 0.149 (at node 13)
Injected flit rate average = 0.009375
	minimum = 0.003 (at node 10)
	maximum = 0.015 (at node 1)
Accepted flit rate average= 0.0093125
	minimum = 0 (at node 0)
	maximum = 0.149 (at node 13)
Injected packet length average = 1
Accepted packet length average = 1
Total in-flight flits = 1 (0 measured)
latency change    = 0.00705108
throughput change = 0.14094
Class 0:
Packet latency average = 20.8784
	minimum = 7
	maximum = 33
Network latency average = 20.8784
	minimum = 7
	maximum = 33
Slowest packet = 31831
Flit latency average = 20.8784
	minimum = 7
	maximum = 33
Slowest flit = 31831
Fragmentation average = 0
	minimum = 0
	maximum = 0
Injected packet rate average = 0.0095
	minimum = 0.004 (at node 0)
	maximum = 0.022 (at node 3)
Accepted packet rate average = 0.00925
	minimum = 0 (at node 0)
	maximum = 0.148 (at node 13)
Injected flit rate average = 0.0095
	minimum = 0.004 (at node 0)
	maximum = 0.022 (at node 3)
Accepted flit rate average= 0.00925
	minimum = 0 (at node 0)
	maximum = 0.148 (at node 13)
Injected packet length average = 1
Accepted packet length average = 1
Total in-flight flits = 3 (0 measured)
latency change    = 0.022784
throughput change = 0.00675676
Warmed up ...Time used is 1500 cycles
Class 0:
Packet latency average = 19.2703
	minimum = 7
	maximum = 32
Network latency average = 19.2703
	minimum = 7
	maximum = 32
Slowest packet = 31905
Flit latency average = 19.5584
	minimum = 7
	maximum = 32
Slowest flit = 31891
Fragmentation average = 0
	minimum = 0
	maximum = 0
Injected packet rate average = 0.00975
	minimum = 0.002 (at node 3)
	maximum = 0.018 (at node 8)
Accepted packet rate average = 0.009625
	minimum = 0 (at node 0)
	maximum = 0.154 (at node 13)
Injected flit rate average = 0.00975
	minimum = 0.002 (at node 3)
	maximum = 0.018 (at node 8)
Accepted flit rate average= 0.009625
	minimum = 0 (at node 0)
	maximum = 0.154 (at node 13)
Injected packet length average = 1
Accepted packet length average = 1
Total in-flight flits = 4 (4 measured)
latency change    = 0.0834502
throughput change = 0.038961
Class 0:
Packet latency average = 19.9799
	minimum = 7
	maximum = 32
Network latency average = 19.9799
	minimum = 7
	maximum = 32
Slowest packet = 31905
Flit latency average = 20.1118
	minimum = 7
	maximum = 32
Slowest flit = 31891
Fragmentation average = 0
	minimum = 0
	maximum = 0
Injected packet rate average = 0.0095
	minimum = 0.004 (at node 5)
	maximum = 0.013 (at node 11)
Accepted packet rate average = 0.0095
	minimum = 0 (at node 0)
	maximum = 0.152 (at node 13)
Injected flit rate average = 0.0095
	minimum = 0.004 (at node 5)
	maximum = 0.013 (at node 11)
Accepted flit rate average= 0.0095
	minimum = 0 (at node 0)
	maximum = 0.152 (at node 13)
Injected packet length average = 1
Accepted packet length average = 1
Total in-flight flits = 3 (3 measured)
latency change    = 0.0355155
throughput change = 0.0131579
Class 0:
Packet latency average = 20.2183
	minimum = 7
	maximum = 32
Network latency average = 20.2183
	minimum = 7
	maximum = 32
Slowest packet = 31905
Flit latency average = 20.3017
	minimum = 7
	maximum = 32
Slowest flit = 31891
Fragmentation average = 0
	minimum = 0
	maximum = 0
Injected packet rate average = 0.00970833
	minimum = 0.004 (at node 5)
	maximum = 0.0133333 (at node 4)
Accepted packet rate average = 0.00966667
	minimum = 0 (at node 0)
	maximum = 0.154667 (at node 13)
Injected flit rate average = 0.00970833
	minimum = 0.004 (at node 5)
	maximum = 0.0133333 (at node 4)
Accepted flit rate average= 0.00966667
	minimum = 0 (at node 0)
	maximum = 0.154667 (at node 13)
Injected packet length average = 1
Accepted packet length average = 1
Total in-flight flits = 4 (4 measured)
latency change    = 0.011795
throughput change = 0.0172414
Class 0:
Packet latency average = 19.947
	minimum = 7
	maximum = 32
Network latency average = 19.947
	minimum = 7
	maximum = 32
Slowest packet = 31905
Flit latency average = 20.0093
	minimum = 7
	maximum = 32
Slowest flit = 31891
Fragmentation average = 0
	minimum = 0
	maximum = 0
Injected packet rate average = 0.0101875
	minimum = 0.005 (at node 5)
	maximum = 0.013 (at node 4)
Accepted packet rate average = 0.010125
	minimum = 0 (at node 0)
	maximum = 0.162 (at node 13)
Injected flit rate average = 0.0101875
	minimum = 0.005 (at node 5)
	maximum = 0.013 (at node 4)
Accepted flit rate average= 0.010125
	minimum = 0 (at node 0)
	maximum = 0.162 (at node 13)
Injected packet length average = 1
Accepted packet length average = 1
Total in-flight flits = 5 (5 measured)
latency change    = 0.013601
throughput change = 0.0452675
Draining all recorded packets ...
Draining remaining packets ...
Time taken is 3544 cycles
Class 0:
Packet latency average = 18.973
	minimum = 7
	maximum = 32
Network latency average = 18.973
	minimum = 7
	maximum = 32
Slowest packet = 32225
Flit latency average = 18.973
	minimum = 7
	maximum = 32
Slowest flit = 32225
Fragmentation average = 0
	minimum = 0
	maximum = 0
Injected packet rate average = 0.0095
	minimum = 0 (at node 6)
	maximum = 0.016 (at node 14)
Accepted packet rate average = 0.00925
	minimum = 0 (at node 0)
	maximum = 0.148 (at node 13)
Injected flit rate average = 0.0095
	minimum = 0 (at node 6)
	maximum = 0.016 (at node 14)
Accepted flit rate average= 0.00925
	minimum = 0 (at node 0)
	maximum = 0.148 (at node 13)
Injected packet length average = 1
Accepted packet length average = 1
Total in-flight flits = 2 (0 measured)
latency change    = 1
throughput change = 1
Class 0:
Packet latency average = 20.2318
	minimum = 7
	maximum = 32
Network latency average = 20.2318
	minimum = 7
	maximum = 32
Slowest packet = 32225
Flit latency average = 20.2318
	minimum = 7
	maximum = 32
Slowest flit = 32225
Fragmentation average = 0
	minimum = 0
	maximum = 0
Injected packet rate average = 0.0096875
	minimum = 0.005 (at node 4)
	maximum = 0.016 (at node 2)
Accepted packet rate average = 0.0094375
	minimum = 0 (at node 0)
	maximum = 0.151 (at node 13)
Injected flit rate average = 0.0096875
	minimum = 0.005 (at node 4)
	maximum = 0.016 (at node 2)
Accepted flit rate average= 0.0094375
	minimum = 0 (at node 0)
	maximum = 0.151 (at node 13)
Injected packet length average = 1
Accepted packet length average = 1
Total in-flight flits = 4 (0 measured)
latency change    = 0.0622197
throughput change = 0.0198675
Class 0:
Packet latency average = 20
	minimum = 7
	maximum = 33
Network latency average = 20
	minimum = 7
	maximum = 33
Slowest packet = 32441
Flit latency average = 20
	minimum = 7
	maximum = 33
Slowest flit = 32441
Fragmentation average = 0
	minimum = 0
	maximum = 0
Injected packet rate average = 0.010375
	minimum = 0.006 (at node 8)
	maximum = 0.016 (at node 3)
Accepted packet rate average = 0.010625
	minimum = 0 (at node 0)
	maximum = 0.17 (at node 13)
Injected flit rate average = 0.010375
	minimum = 0.006 (at node 8)
	maximum = 0.016 (at node 3)
Accepted flit rate average= 0.010625
	minimum = 0 (at node 0)
	maximum = 0.17 (at node 13)
Injected packet length average = 1
Accepted packet length average = 1
Total in-flight flits = 2 (0 measured)
latency change    = 0.0115894
throughput change = 0.111765
Warmed up ...Time used is 1500 cycles
Class 0:
Packet latency average = 19.303
	minimum = 7
	maximum = 33
Network latency average = 19.303
	minimum = 7
	maximum = 33
Slowest packet = 32478
Flit latency average = 19.3824
	minimum = 7
	maximum = 33
Slowest flit = 32478
Fragmentation average = 0
	minimum = 0
	maximum = 0
Injected packet rate average = 0.008875
	minimum = 0.004 (at node 6)
	maximum = 0.02 (at node 1)
Accepted packet rate average = 0.0085
	minimum = 0 (at node 0)
	maximum = 0.136 (at node 13)
Injected flit rate average = 0.008875
	minimum = 0.004 (at node 6)
	maximum = 0.02 (at node 1)
Accepted flit rate average= 0.0085
	minimum = 0 (at node 0)
	maximum = 0.136 (at node 13)
Injected packet length average = 1
Accepted packet length average = 1
Total in-flight flits = 5 (5 measured)
latency change    = 0.0361068
throughput change = 0.25
Class 0:
Packet latency average = 19.8647
	minimum = 7
	maximum = 35
Network latency average = 19.8647
	minimum = 7
	maximum = 35
Slowest packet = 32557
Flit latency average = 19.8895
	minimum = 7
	maximum = 35
Slowest flit = 32557
Fragmentation average = 0
	minimum = 0
	maximum = 0
Injected packet rate average = 0.0106875
	minimum = 0.004 (at node 15)
	maximum = 0.016 (at node 1)
Accepted packet rate average = 0.01075
	minimum = 0 (at node 0)
	maximum = 0.172 (at node 13)
Injected flit rate average = 0.0106875
	minimum = 0.004 (at node 15)
	maximum = 0.016 (at node 1)
Accepted flit rate average= 0.01075
	minimum = 0 (at node 0)
	maximum = 0.172 (at node 13)
Injected packet length average = 1
Accepted packet length average = 1
Total in-flight flits = 1 (1 measured)
latency change    = 0.0282751
throughput change = 0.209302
Class 0:
Packet latency average = 19.6151
	minimum = 7
	maximum = 35
Network latency average = 19.6151
	minimum = 7
	maximum = 35
Slowest packet = 32557
Flit latency average = 19.6349
	minimum = 7
	maximum = 35
Slowest flit = 32557
Fragmentation average = 0
	minimum = 0
	maximum = 0
Injected packet rate average = 0.00995833
	minimum = 0.006 (at node 15)
	maximum = 0.0146667 (at node 13)
Accepted packet rate average = 0.0100417
	minimum = 0 (at node 0)
	maximum = 0.160667 (at node 13)
Injected flit rate average = 0.00995833
	minimum = 0.006 (at node 15)
	maximum = 0.0146667 (at node 13)
Accepted flit rate average= 0.0100417
	minimum = 0 (at node 0)
	maximum = 0.160667 (at node 13)
Injected packet length average = 1
Accepted packet length average = 1
Total in-flight flits = 0 (0 measured)
latency change    = 0.0127271
throughput change = 0.0705394
Class 0:
Packet latency average = 19.5452
	minimum = 7
	maximum = 35
Network latency average = 19.5452
	minimum = 7
	maximum = 35
Slowest packet = 32557
Flit latency average = 19.5604
	minimum = 7
	maximum = 35
Slowest flit = 32557
Fragmentation average = 0
	minimum = 0
	maximum = 0
Injected packet rate average = 0.010125
	minimum = 0.007 (at node 15)
	maximum = 0.014 (at node 13)
Accepted packet rate average = 0.0100938
	minimum = 0 (at node 0)
	maximum = 0.1615 (at node 13)
Injected flit rate average = 0.010125
	minimum = 0.007 (at node 15)
	maximum = 0.014 (at node 13)
Accepted flit rate average= 0.0100938
	minimum = 0 (at node 0)
	maximum = 0.1615 (at node 13)
Injected packet length average = 1
Accepted packet length average = 1
Total in-flight flits = 3 (3 measured)
latency change    = 0.00357589
throughput change = 0.00515996
Class 0:
Packet latency average = 19.684
	minimum = 7
	maximum = 38
Network latency average = 19.684
	minimum = 7
	maximum = 38
Slowest packet = 32844
Flit latency average = 19.6953
	minimum = 7
	maximum = 38
Slowest flit = 32844
Fragmentation average = 0
	minimum = 0
	maximum = 0
Injected packet rate average = 0.010225
	minimum = 0.0076 (at node 12)
	maximum = 0.014 (at node 13)
Accepted packet rate average = 0.010175
	minimum = 0 (at node 0)
	maximum = 0.1628 (at node 13)
Injected flit rate average = 0.010225
	minimum = 0.0076 (at node 12)
	maximum = 0.014 (at node 13)
Accepted flit rate average= 0.010175
	minimum = 0 (at node 0)
	maximum = 0.1628 (at node 13)
Injected packet length average = 1
Accepted packet length average = 1
Total in-flight flits = 4 (4 measured)
latency change    = 0.00705038
throughput change = 0.00798526
Class 0:
Packet latency average = 19.6379
	minimum = 7
	maximum = 38
Network latency average = 19.6379
	minimum = 7
	maximum = 38
Slowest packet = 32844
Flit latency average = 19.6475
	minimum = 7
	maximum = 38
Slowest flit = 32844
Fragmentation average = 0
	minimum = 0
	maximum = 0
Injected packet rate average = 0.0101875
	minimum = 0.00766667 (at node 2)
	maximum = 0.014 (at node 13)
Accepted packet rate average = 0.0101667
	minimum = 0 (at node 0)
	maximum = 0.162667 (at node 13)
Injected flit rate average = 0.0101875
	minimum = 0.00766667 (at node 2)
	maximum = 0.014 (at node 13)
Accepted flit rate average= 0.0101667
	minimum = 0 (at node 0)
	maximum = 0.162667 (at node 13)
Injected packet length average = 1
Accepted packet length average = 1
Total in-flight flits = 3 (3 measured)
latency change    = 0.00234702
throughput change = 0.000819672
Draining all recorded packets ...
Draining remaining packets ...
Time taken is 4553 cycles
====== Overall Traffic Statistics ======
====== Traffic class 0 ======
Packet latency average = 19.7895 (50 samples)
	minimum = 7 (50 samples)
	maximum = 35.32 (50 samples)
Network latency average = 19.7895 (50 samples)
	minimum = 7 (50 samples)
	maximum = 35.32 (50 samples)
Flit latency average = 19.8098 (50 samples)
	minimum = 7 (50 samples)
	maximum = 35.32 (50 samples)
Fragmentation average = 0 (50 samples)
	minimum = 0 (50 samples)
	maximum = 0 (50 samples)
Injected packet rate average = 0.00999411 (50 samples)
	minimum = 0.0065959 (50 samples)
	maximum = 0.0134804 (50 samples)
Accepted packet rate average = 0.00998467 (50 samples)
	minimum = 0 (50 samples)
	maximum = 0.159755 (50 samples)
Injected flit rate average = 0.00999411 (50 samples)
	minimum = 0.0065959 (50 samples)
	maximum = 0.0134804 (50 samples)
Accepted flit rate average = 0.00998467 (50 samples)
	minimum = 0 (50 samples)
	maximum = 0.159755 (50 samples)
Injected packet size average = 1 (50 samples)
Accepted packet size average = 1 (50 samples)
Hops average = 3.5182 (50 samples)
Total run time 4.61352
