BEGIN Configuration File: /tmp/tmpwzripeiu.cfg
topology = mesh;
k = 4;
n = 2;
routing_function = planar_adapt;
num_vcs = 4;
vc_buf_size = 4;
wait_for_tail_credit = 1;
vc_allocator = islip;
sw_allocator = islip;
alloc_iters = 1;
credit_delay = 2;
routing_delay = 1;
vc_alloc_delay = 1;
sw_alloc_delay = 1;
input_speedup = 2;
output_speedup = 1;
internal_speedup = 1.0;
traffic = uniform;
packet_size = 1;
sim_type = latency;
injection_rate = 0.05;
warmup_periods = 3;
sample_period = 500;
sim_count = 50;
seed = 2;
link_failures = 1;
fail_seed = 101;

END Configuration File: /tmp/tmpwzripeiu.cfg
failure at node 14, channel 0 (1/1)
Class 0:
Packet latency average = 20.7507
	minimum = 7
	maximum = 45
Network latency average = 20.7507
	minimum = 7
	maximum = 45
Slowest packet = 56
Flit latency average = 20.7507
	minimum = 7
	maximum = 45
Slowest flit = 56
Fragmentation average = 0
	minimum = 0
	maximum = 0
Injected packet rate average = 0.048875
	minimum = 0.03 (at node 5)
	maximum = 0.068 (at node 10)
Accepted packet rate average = 0.046625
	minimum = 0.036 (at node 12)
	maximum = 0.068 (at node 9)
Injected flit rate average = 0.048875
	minimum = 0.03 (at node 5)
	maximum = 0.068 (at node 10)
Accepted flit rate average= 0.046625
	minimum = 0.036 (at node 12)
	maximum = 0.068 (at node 9)
Injected packet length average = 1
Accepted packet length average = 1
Total in-flight flits = 18 (0 measured)
latency change    = 1
throughput change = 1
Class 0:
Packet latency average = 21.0091
	minimum = 7
	maximum = 51
Network latency average = 21.0091
	minimum = 7
	maximum = 51
Slowest packet = 574
Flit latency average = 21.0091
	minimum = 7
	maximum = 51
Slowest flit = 574
Fragmentation average = 0
	minimum = 0
	maximum = 0
Injected packet rate average = 0.04975
	minimum = 0.035 (at node 8)
	maximum = 0.064 (at node 10)
Accepted packet rate average = 0.04825
	minimum = 0.038 (at node 2)
	maximum = 0.059 (at node 10)
Injected flit rate average = 0.04975
	minimum = 0.035 (at node 8)
	maximum = 0.064 (at node 10)
Accepted flit rate average= 0.04825
	minimum = 0.038 (at node 2)
	maximum = 0.059 (at node 10)
Injected packet length average = 1
Accepted packet length average = 1
Total in-flight flits = 24 (0 measured)
latency change    = 0.0122993
throughput change = 0.0336788
Class 0:
Packet latency average = 20.9111
	minimum = 7
	maximum = 43
Network latency average = 20.9111
	minimum = 7
	maximum = 43
Slowest packet = 1007
Flit latency average = 20.9111
	minimum = 7
	maximum = 43
Slowest flit = 1007
Fragmentation average = 0
	minimum = 0
	maximum = 0
Injected packet rate average = 0.04475
	minimum = 0.026 (at node 1)
	maximum = 0.06 (at node 10)
Accepted packet rate average = 0.046375
	minimum = 0.02 (at node 11)
	maximum = 0.062 (at node 0)
Injected flit rate average = 0.04475
	minimum = 0.026 (at node 1)
	maximum = 0.06 (at node 10)
Accepted flit rate average= 0.046375
	minimum = 0.02 (at node 11)
	maximum = 0.062 (at node 0)
Injected packet length average = 1
Accepted packet length average = 1
Total in-flight flits = 11 (0 measured)
latency change    = 0.00468729
throughput change = 0.0404313
Warmed up ...Time used is 1500 cycles
Class 0:
Packet latency average = 20.106
	minimum = 7
	maximum = 48
Network latency average = 20.106
	minimum = 7
	maximum = 48
Slowest packet = 1388
Flit latency average = 20.1667
	minimum = 7
	maximum = 48
Slowest flit = 1388
Fragmentation average = 0
	minimum = 0
	maximum = 0
Injected packet rate average = 0.05375
	minimum = 0.038 (at node 15)
	maximum = 0.08 (at node 10)
Accepted packet rate average = 0.05325
	minimum = 0.03 (at node 4)
	maximum = 0.078 (at node 5)
Injected flit rate average = 0.05375
	minimum = 0.038 (at node 15)
	maximum = 0.08 (at node 10)
Accepted flit rate average= 0.05325
	minimum = 0.03 (at node 4)
	maximum = 0.078 (at node 5)
Injected packet length average = 1
Accepted packet length average = 1
Total in-flight flits = 15 (15 measured)
latency change    = 0.0400391
throughput change = 0.129108
Class 0:
Packet latency average = 19.8997
	minimum = 7
	maximum = 48
Network latency average = 19.8997
	minimum = 7
	maximum = 48
Slowest packet = 1388
Flit latency average = 19.9349
	minimum = 7
	maximum = 48
Slowest flit = 1388
Fragmentation average = 0
	minimum = 0
	maximum = 0
Injected packet rate average = 0.050125
	minimum = 0.032 (at node 15)
	maximum = 0.07 (at node 10)
Accepted packet rate average = 0.0499375
	minimum = 0.04 (at node 9)
	maximum = 0.061 (at node 5)
Injected flit rate average = 0.050125
	minimum = 0.032 (at node 15)
	maximum = 0.07 (at node 10)
Accepted flit rate average= 0.0499375
	minimum = 0.04 (at node 9)
	maximum = 0.061 (at node 5)
Injected packet length average = 1
Accepted packet length average = 1
Total in-flight flits = 14 (14 measured)
latency change    = 0.0103659
throughput change = 0.0663329
Class 0:
Packet latency average = 20.2472
	minimum = 7
	maximum = 48
Network latency average = 20.2472
	minimum = 7
	maximum = 48
Slowest packet = 1388
Flit latency average = 20.2677
	minimum = 7
	maximum = 48
Slowest flit = 1388
Fragmentation average = 0
	minimum = 0
	maximum = 0
Injected packet rate average = 0.049625
	minimum = 0.0393333 (at node 15)
	maximum = 0.066 (at node 10)
Accepted packet rate average = 0.0493333
	minimum = 0.042 (at node 9)
	maximum = 0.058 (at node 8)
Injected flit rate average = 0.049625
	minimum = 0.0393333 (at node 15)
	maximum = 0.066 (at node 10)
Accepted flit rate average= 0.0493333
	minimum = 0.042 (at node 9)
	maximum = 0.058 (at node 8)
Injected packet length average = 1
Accepted packet length average = 1
Total in-flight flits = 18 (18 measured)
latency change    = 0.017162
throughput change = 0.0122466
Class 0:
Packet latency average = 20.1887
	minimum = 7
	maximum = 48
Network latency average = 20.1887
	minimum = 7
	maximum = 48
Slowest packet = 1388
Flit latency average = 20.2042
	minimum = 7
	maximum = 48
Slowest flit = 1388
Fragmentation average = 0
	minimum = 0
	maximum = 0
Injected packet rate average = 0.0506562
	minimum = 0.0425 (at node 1)
	maximum = 0.0695 (at node 10)
Accepted packet rate average = 0.0503437
	minimum = 0.042 (at node 9)
	maximum = 0.058 (at node 8)
Injected flit rate average = 0.0506562
	minimum = 0.0425 (at node 1)
	maximum = 0.0695 (at node 10)
Accepted flit rate average= 0.0503437
	minimum = 0.042 (at node 9)
	maximum = 0.058 (at node 8)
Injected packet length average = 1
Accepted packet length average = 1
Total in-flight flits = 21 (21 measured)
latency change    = 0.00289663
throughput change = 0.0200703
Class 0:
Packet latency average = 20.2365
	minimum = 7
	maximum = 55
Network latency average = 20.2365
	minimum = 7
	maximum = 55
Slowest packet = 2764
Flit latency average = 20.2484
	minimum = 7
	maximum = 55
Slowest flit = 2764
Fragmentation average = 0
	minimum = 0
	maximum = 0
Injected packet rate average = 0.051225
	minimum = 0.0404 (at node 1)
	maximum = 0.0648 (at node 10)
Accepted packet rate average = 0.051125
	minimum = 0.042 (at node 9)
	maximum = 0.0592 (at node 15)
Injected flit rate average = 0.051225
	minimum = 0.0404 (at node 1)
	maximum = 0.0648 (at node 10)
Accepted flit rate average= 0.051125
	minimum = 0.042 (at node 9)
	maximum = 0.0592 (at node 15)
Injected packet length average = 1
Accepted packet length average = 1
Total in-flight flits = 15 (15 measured)
latency change    = 0.0023586
throughput change = 0.0152812
Draining all recorded packets ...
Draining remaining packets ...
Time taken is 4055 cycles
Class 0:
Packet latency average = 20.5873
	minimum = 7
	maximum = 46
Network latency average = 20.5873
	minimum = 7
	maximum = 46
Slowest packet = 3452
Flit latency average = 20.5873
	minimum = 7
	maximum = 46
Slowest flit = 3452
Fragmentation average = 0
	minimum = 0
	maximum = 0
Injected packet rate average = 0.05075
	minimum = 0.04 (at node 4)
	maximum = 0.062 (at node 0)
Accepted packet rate average = 0.049375
	minimum = 0.03 (at node 12)
	maximum = 0.068 (at node 2)
Injected flit rate average = 0.05075
	minimum = 0.04 (at node 4)
	maximum = 0.062 (at node 0)
Accepted flit rate average= 0.049375
	minimum = 0.03 (at node 12)
	maximum = 0.068 (at node 2)
Injected packet length average = 1
Accepted packet length average = 1
Total in-flight flits = 11 (0 measured)
latency change    = 1
throughput change = 1
Class 0:
Packet latency average = 20.5259
	minimum = 7
	maximum = 62
Network latency average = 20.5259
	minimum = 7
	maximum = 62
Slowest packet = 3895
Flit latency average = 20.5259
	minimum = 7
	maximum = 62
Slowest flit = 3895
Fragmentation average = 0
	minimum = 0
	maximum = 0
Injected packet rate average = 0.0519375
	minimum = 0.044 (at node 4)
	maximum = 0.063 (at node 8)
Accepted packet rate average = 0.050625
	minimum = 0.037 (at node 8)
	maximum = 0.064 (at node 2)
Injected flit rate average = 0.0519375
	minimum = 0.044 (at node 4)
	maximum = 0.063 (at node 8)
Accepted flit rate average= 0.050625
	minimum = 0.037 (at node 8)
	maximum = 0.064 (at node 2)
Injected packet length average = 1
Accepted packet length average = 1
Total in-flight flits = 21 (0 measured)
latency change    = 0.00299211
throughput change = 0.0246914
Class 0:
Packet latency average = 20.1575
	minimum = 7
	maximum = 52
Network latency average = 20.1575
	minimum = 7
	maximum = 52
Slowest packet = 4291
Flit latency average = 20.1575
	minimum = 7
	maximum = 52
Slowest flit = 4291
Fragmentation average = 0
	minimum = 0
	maximum = 0
Injected packet rate average = 0.054875
	minimum = 0.032 (at node 11)
	maximum = 0.074 (at node 4)
Accepted packet rate average = 0.05475
	minimum = 0.034 (at node 7)
	maximum = 0.078 (at node 0)
Injected flit rate average = 0.054875
	minimum = 0.032 (at node 11)
	maximum = 0.074 (at node 4)
Accepted flit rate average= 0.05475
	minimum = 0.034 (at node 7)
	maximum = 0.078 (at node 0)
Injected packet length average = 1
Accepted packet length average = 1
Total in-flight flits = 22 (0 measured)
latency change    = 0.0182756
throughput change = 0.0753425
Warmed up ...Time used is 1500 cycles
Class 0:
Packet latency average = 19.5123
	minimum = 7
	maximum = 41
Network latency average = 19.5123
	minimum = 7
	maximum = 41
Slowest packet = 4727
Flit latency average = 19.7044
	minimum = 7
	maximum = 42
Slowest flit = 4465
Fragmentation average = 0
	minimum = 0
	maximum = 0
Injected packet rate average = 0.0475
	minimum = 0.036 (at node 2)
	maximum = 0.064 (at node 13)
Accepted packet rate average = 0.048625
	minimum = 0.034 (at node 14)
	maximum = 0.072 (at node 0)
Injected flit rate average = 0.0475
	minimum = 0.036 (at node 2)
	maximum = 0.064 (at node 13)
Accepted flit rate average= 0.048625
	minimum = 0.034 (at node 14)
	maximum = 0.072 (at node 0)
Injected packet length average = 1
Accepted packet length average = 1
Total in-flight flits = 13 (13 measured)
latency change    = 0.0330701
throughput change = 0.125964
Class 0:
Packet latency average = 19.6549
	minimum = 7
	maximum = 41
Network latency average = 19.6499
	minimum = 7
	maximum = 41
Slowest packet = 4727
Flit latency average = 19.7377
	minimum = 7
	maximum = 42
Slowest flit = 4465
Fragmentation average = 0
	minimum = 0
	maximum = 0
Injected packet rate average = 0.05025
	minimum = 0.042 (at node 12)
	maximum = 0.062 (at node 5)
Accepted packet rate average = 0.051
	minimum = 0.04 (at node 14)
	maximum = 0.065 (at node 0)
Injected flit rate average = 0.05025
	minimum = 0.042 (at node 12)
	maximum = 0.062 (at node 5)
Accepted flit rate average= 0.051
	minimum = 0.04 (at node 14)
	maximum = 0.065 (at node 0)
Injected packet length average = 1
Accepted packet length average = 1
Total in-flight flits = 10 (10 measured)
latency change    = 0.00725774
throughput change = 0.0465686
Class 0:
Packet latency average = 19.7485
	minimum = 7
	maximum = 44
Network latency average = 19.7451
	minimum = 7
	maximum = 44
Slowest packet = 5451
Flit latency average = 19.8035
	minimum = 7
	maximum = 44
Slowest flit = 5451
Fragmentation average = 0
	minimum = 0
	maximum = 0
Injected packet rate average = 0.0494583
	minimum = 0.0426667 (at node 15)
	maximum = 0.0566667 (at node 3)
Accepted packet rate average = 0.049625
	minimum = 0.038 (at node 14)
	maximum = 0.0573333 (at node 9)
Injected flit rate average = 0.0494583
	minimum = 0.0426667 (at node 15)
	maximum = 0.0566667 (at node 3)
Accepted flit rate average= 0.049625
	minimum = 0.038 (at node 14)
	maximum = 0.0573333 (at node 9)
Injected packet length average = 1
Accepted packet length average = 1
Total in-flight flits = 18 (18 measured)
latency change    = 0.00473915
throughput change = 0.0277078
Class 0:
Packet latency average = 20.0567
	minimum = 7
	maximum = 47
Network latency average = 20.0541
	minimum = 7
	maximum = 47
Slowest packet = 5895
Flit latency average = 20.0935
	minimum = 7
	maximum = 47
Slowest flit = 5895
Fragmentation average = 0
	minimum = 0
	maximum = 0
Injected packet rate average = 0.0496562
	minimum = 0.0435 (at node 11)
	maximum = 0.06 (at node 5)
Accepted packet rate average = 0.0497812
	minimum = 0.0415 (at node 14)
	maximum = 0.056 (at node 0)
Injected flit rate average = 0.0496562
	minimum = 0.0435 (at node 11)
	maximum = 0.06 (at node 5)
Accepted flit rate average= 0.0497812
	minimum = 0.0415 (at node 14)
	maximum = 0.056 (at node 0)
Injected packet length average = 1
Accepted packet length average = 1
Total in-flight flits = 18 (18 measured)
latency change    = 0.0153639
throughput change = 0.00313873
Draining all recorded packets ...
Draining remaining packets ...
Time taken is 3557 cycles
Class 0:
Packet latency average = 20.4786
	minimum = 7
	maximum = 50
Network latency average = 20.4786
	minimum = 7
	maximum = 50
Slowest packet = 6331
Flit latency average = 20.4786
	minimum = 7
	maximum = 50
Slowest flit = 6331
Fragmentation average = 0
	minimum = 0
	maximum = 0
Injected packet rate average = 0.048375
	minimum = 0.024 (at node 9)
	maximum = 0.072 (at node 4)
Accepted packet rate average = 0.04675
	minimum = 0.034 (at node 3)
	maximum = 0.066 (at node 11)
Injected flit rate average = 0.048375
	minimum = 0.024 (at node 9)
	maximum = 0.072 (at node 4)
Accepted flit rate average= 0.04675
	minimum = 0.034 (at node 3)
	maximum = 0.066 (at node 11)
Injected packet length average = 1
Accepted packet length average = 1
Total in-flight flits = 13 (0 measured)
latency change    = 1
throughput change = 1
Class 0:
Packet latency average = 20.7768
	minimum = 7
	maximum = 51
Network latency average = 20.7768
	minimum = 7
	maximum = 51
Slowest packet = 6766
Flit latency average = 20.7768
	minimum = 7
	maximum = 51
Slowest flit = 6766
Fragmentation average = 0
	minimum = 0
	maximum = 0
Injected packet rate average = 0.0490625
	minimum = 0.034 (at node 9)
	maximum = 0.063 (at node 0)
Accepted packet rate average = 0.047875
	minimum = 0.039 (at node 2)
	maximum = 0.055 (at node 11)
Injected flit rate average = 0.0490625
	minimum = 0.034 (at node 9)
	maximum = 0.063 (at node 0)
Accepted flit rate average= 0.047875
	minimum = 0.039 (at node 2)
	maximum = 0.055 (at node 11)
Injected packet length average = 1
Accepted packet length average = 1
Total in-flight flits = 19 (0 measured)
latency change    = 0.0143503
throughput change = 0.0234987
Class 0:
Packet latency average = 21.5254
	minimum = 7
	maximum = 49
Network latency average = 21.5254
	minimum = 7
	maximum = 49
Slowest packet = 7169
Flit latency average = 21.5254
	minimum = 7
	maximum = 49
Slowest flit = 7169
Fragmentation average = 0
	minimum = 0
	maximum = 0
Injected packet rate average = 0.0515
	minimum = 0.03 (at node 10)
	maximum = 0.074 (at node 15)
Accepted packet rate average = 0.051625
	minimum = 0.032 (at node 6)
	maximum = 0.076 (at node 4)
Injected flit rate average = 0.0515
	minimum = 0.03 (at node 10)
	maximum = 0.074 (at node 15)
Accepted flit rate average= 0.051625
	minimum = 0.032 (at node 6)
	maximum = 0.076 (at node 4)
Injected packet length average = 1
Accepted packet length average = 1
Total in-flight flits = 18 (0 measured)
latency change    = 0.0347803
throughput change = 0.0726392
Warmed up ...Time used is 1500 cycles
Class 0:
Packet latency average = 20.2304
	minimum = 7
	maximum = 43
Network latency average = 20.2304
	minimum = 7
	maximum = 43
Slowest packet = 7367
Flit latency average = 20.4275
	minimum = 7
	maximum = 44
Slowest flit = 7275
Fragmentation average = 0
	minimum = 0
	maximum = 0
Injected packet rate average = 0.049375
	minimum = 0.04 (at node 2)
	maximum = 0.07 (at node 8)
Accepted packet rate average = 0.05
	minimum = 0.03 (at node 13)
	maximum = 0.068 (at node 2)
Injected flit rate average = 0.049375
	minimum = 0.04 (at node 2)
	maximum = 0.07 (at node 8)
Accepted flit rate average= 0.05
	minimum = 0.03 (at node 13)
	maximum = 0.068 (at node 2)
Injected packet length average = 1
Accepted packet length average = 1
Total in-flight flits = 13 (13 measured)
latency change    = 0.0640155
throughput change = 0.0325
Class 0:
Packet latency average = 20.1247
	minimum = 7
	maximum = 45
Network latency average = 20.1247
	minimum = 7
	maximum = 45
Slowest packet = 7780
Flit latency average = 20.2251
	minimum = 7
	maximum = 45
Slowest flit = 7780
Fragmentation average = 0
	minimum = 0
	maximum = 0
Injected packet rate average = 0.0499375
	minimum = 0.04 (at node 1)
	maximum = 0.062 (at node 14)
Accepted packet rate average = 0.05025
	minimum = 0.039 (at node 4)
	maximum = 0.067 (at node 10)
Injected flit rate average = 0.0499375
	minimum = 0.04 (at node 1)
	maximum = 0.062 (at node 14)
Accepted flit rate average= 0.05025
	minimum = 0.039 (at node 4)
	maximum = 0.067 (at node 10)
Injected packet length average = 1
Accepted packet length average = 1
Total in-flight flits = 13 (13 measured)
latency change    = 0.00525149
throughput change = 0.00497512
Class 0:
Packet latency average = 20.2276
	minimum = 7
	maximum = 46
Network latency average = 20.2276
	minimum = 7
	maximum = 46
Slowest packet = 8130
Flit latency average = 20.292
	minimum = 7
	maximum = 46
Slowest flit = 8130
Fragmentation average = 0
	minimum = 0
	maximum = 0
Injected packet rate average = 0.051375
	minimum = 0.0413333 (at node 13)
	maximum = 0.062 (at node 0)
Accepted packet rate average = 0.0510833
	minimum = 0.0393333 (at node 7)
	maximum = 0.0646667 (at node 10)
Injected flit rate average = 0.051375
	minimum = 0.0413333 (at node 13)
	maximum = 0.062 (at node 0)
Accepted flit rate average= 0.0510833
	minimum = 0.0393333 (at node 7)
	maximum = 0.0646667 (at node 10)
Injected packet length average = 1
Accepted packet length average = 1
Total in-flight flits = 25 (25 measured)
latency change    = 0.00509041
throughput change = 0.0163132
Class 0:
Packet latency average = 20.0142
	minimum = 7
	maximum = 54
Network latency average = 20.0142
	minimum = 7
	maximum = 54
Slowest packet = 8497
Flit latency average = 20.0646
	minimum = 7
	maximum = 54
Slowest flit = 8497
Fragmentation average = 0
	minimum = 0
	maximum = 0
Injected packet rate average = 0.0512813
	minimum = 0.0455 (at node 3)
	maximum = 0.0575 (at node 8)
Accepted packet rate average = 0.0513125
	minimum = 0.0435 (at node 13)
	maximum = 0.062 (at node 10)
Injected flit rate average = 0.0512813
	minimum = 0.0455 (at node 3)
	maximum = 0.0575 (at node 8)
Accepted flit rate average= 0.0513125
	minimum = 0.0435 (at node 13)
	maximum = 0.062 (at node 10)
Injected packet length average = 1
Accepted packet length average = 1
Total in-flight flits = 17 (17 measured)
latency change    = 0.0106668
throughput change = 0.0044661
Draining all recorded packets ...
Draining remaining packets ...
Time taken is 3554 cycles
Class 0:
Packet latency average = 20.2251
	minimum = 7
	maximum = 59
Network latency average = 20.2251
	minimum = 7
	maximum = 59
Slowest packet = 9248
Flit latency average = 20.2251
	minimum = 7
	maximum = 59
Slowest flit = 9248
Fragmentation average = 0
	minimum = 0
	maximum = 0
Injected packet rate average = 0.04975
	minimum = 0.04 (at node 10)
	maximum = 0.06 (at node 14)
Accepted packet rate average = 0.04775
	minimum = 0.036 (at node 10)
	maximum = 0.062 (at node 15)
Injected flit rate average = 0.04975
	minimum = 0.04 (at node 10)
	maximum = 0.06 (at node 14)
Accepted flit rate average= 0.04775
	minimum = 0.036 (at node 10)
	maximum = 0.062 (at node 15)
Injected packet length average = 1
Accepted packet length average = 1
Total in-flight flits = 16 (0 measured)
latency change    = 1
throughput change = 1
Class 0:
Packet latency average = 20.3013
	minimum = 7
	maximum = 59
Network latency average = 20.3013
	minimum = 7
	maximum = 59
Slowest packet = 9248
Flit latency average = 20.3013
	minimum = 7
	maximum = 59
Slowest flit = 9248
Fragmentation average = 0
	minimum = 0
	maximum = 0
Injected packet rate average = 0.0493125
	minimum = 0.041 (at node 8)
	maximum = 0.059 (at node 14)
Accepted packet rate average = 0.04875
	minimum = 0.037 (at node 0)
	maximum = 0.057 (at node 4)
Injected flit rate average = 0.0493125
	minimum = 0.041 (at node 8)
	maximum = 0.059 (at node 14)
Accepted flit rate average= 0.04875
	minimum = 0.037 (at node 0)
	maximum = 0.057 (at node 4)
Injected packet length average = 1
Accepted packet length average = 1
Total in-flight flits = 9 (0 measured)
latency change    = 0.00375105
throughput change = 0.0205128
Class 0:
Packet latency average = 19.3743
	minimum = 7
	maximum = 45
Network latency average = 19.3743
	minimum = 7
	maximum = 45
Slowest packet = 10071
Flit latency average = 19.3743
	minimum = 7
	maximum = 45
Slowest flit = 10071
Fragmentation average = 0
	minimum = 0
	maximum = 0
Injected packet rate average = 0.048
	minimum = 0.034 (at node 10)
	maximum = 0.058 (at node 15)
Accepted packet rate average = 0.04675
	minimum = 0.03 (at node 0)
	maximum = 0.072 (at node 4)
Injected flit rate average = 0.048
	minimum = 0.034 (at node 10)
	maximum = 0.058 (at node 15)
Accepted flit rate average= 0.04675
	minimum = 0.03 (at node 0)
	maximum = 0.072 (at node 4)
Injected packet length average = 1
Accepted packet length average = 1
Total in-flight flits = 19 (0 measured)
latency change    = 0.0478443
throughput change = 0.0427807
Warmed up ...Time used is 1500 cycles
Class 0:
Packet latency average = 20.5582
	minimum = 7
	maximum = 40
Network latency average = 20.5582
	minimum = 7
	maximum = 40
Slowest packet = 10184
Flit latency average = 20.7909
	minimum = 7
	maximum = 43
Slowest flit = 10107
Fragmentation average = 0
	minimum = 0
	maximum = 0
Injected packet rate average = 0.049
	minimum = 0.032 (at node 6)
	maximum = 0.062 (at node 7)
Accepted packet rate average = 0.049625
	minimum = 0.038 (at node 12)
	maximum = 0.064 (at node 2)
Injected flit rate average = 0.049
	minimum = 0.032 (at node 6)
	maximum = 0.062 (at node 7)
Accepted flit rate average= 0.049625
	minimum = 0.038 (at node 12)
	maximum = 0.064 (at node 2)
Injected packet length average = 1
Accepted packet length average = 1
Total in-flight flits = 14 (14 measured)
latency change    = 0.0575862
throughput change = 0.0579345
Class 0:
Packet latency average = 20.321
	minimum = 7
	maximum = 55
Network latency average = 20.321
	minimum = 7
	maximum = 55
Slowest packet = 10651
Flit latency average = 20.4419
	minimum = 7
	maximum = 55
Slowest flit = 10651
Fragmentation average = 0
	minimum = 0
	maximum = 0
Injected packet rate average = 0.049625
	minimum = 0.039 (at node 3)
	maximum = 0.061 (at node 15)
Accepted packet rate average = 0.0500625
	minimum = 0.039 (at node 12)
	maximum = 0.066 (at node 2)
Injected flit rate average = 0.049625
	minimum = 0.039 (at node 3)
	maximum = 0.061 (at node 15)
Accepted flit rate average= 0.0500625
	minimum = 0.039 (at node 12)
	maximum = 0.066 (at node 2)
Injected packet length average = 1
Accepted packet length average = 1
Total in-flight flits = 12 (12 measured)
latency change    = 0.0116741
throughput change = 0.00873908
Class 0:
Packet latency average = 20.2312
	minimum = 7
	maximum = 55
Network latency average = 20.2312
	minimum = 7
	maximum = 55
Slowest packet = 10651
Flit latency average = 20.314
	minimum = 7
	maximum = 55
Slowest flit = 10651
Fragmentation average = 0
	minimum = 0
	maximum = 0
Injected packet rate average = 0.049625
	minimum = 0.042 (at node 3)
	maximum = 0.0586667 (at node 15)
Accepted packet rate average = 0.049625
	minimum = 0.0413333 (at node 7)
	maximum = 0.062 (at node 2)
Injected flit rate average = 0.049625
	minimum = 0.042 (at node 3)
	maximum = 0.0586667 (at node 15)
Accepted flit rate average= 0.049625
	minimum = 0.0413333 (at node 7)
	maximum = 0.062 (at node 2)
Injected packet length average = 1
Accepted packet length average = 1
Total in-flight flits = 19 (19 measured)
latency change    = 0.00443587
throughput change = 0.00881612
Class 0:
Packet latency average = 20.1382
	minimum = 7
	maximum = 55
Network latency average = 20.1382
	minimum = 7
	maximum = 55
Slowest packet = 10651
Flit latency average = 20.2014
	minimum = 7
	maximum = 55
Slowest flit = 10651
Fragmentation average = 0
	minimum = 0
	maximum = 0
Injected packet rate average = 0.0496562
	minimum = 0.043 (at node 3)
	maximum = 0.0555 (at node 15)
Accepted packet rate average = 0.0496562
	minimum = 0.0395 (at node 4)
	maximum = 0.0615 (at node 2)
Injected flit rate average = 0.0496562
	minimum = 0.043 (at node 3)
	maximum = 0.0555 (at node 15)
Accepted flit rate average= 0.0496562
	minimum = 0.0395 (at node 4)
	maximum = 0.0615 (at node 2)
Injected packet length average = 1
Accepted packet length average = 1
Total in-flight flits = 19 (19 measured)
latency change    = 0.00461869
throughput change = 0.000629327
Draining all recorded packets ...
Draining remaining packets ...
Time taken is 3555 cycles
Class 0:
Packet latency average = 20.1314
	minimum = 7
	maximum = 45
Network latency average = 20.1314
	minimum = 7
	maximum = 45
Slowest packet = 12080
Flit latency average = 20.1314
	minimum = 7
	maximum = 45
Slowest flit = 12080
Fragmentation average = 0
	minimum = 0
	maximum = 0
Injected packet rate average = 0.05075
	minimum = 0.028 (at node 7)
	maximum = 0.068 (at node 11)
Accepted packet rate average = 0.0485
	minimum = 0.032 (at node 1)
	maximum = 0.076 (at node 15)
Injected flit rate average = 0.05075
	minimum = 0.028 (at node 7)
	maximum = 0.068 (at node 11)
Accepted flit rate average= 0.0485
	minimum = 0.032 (at node 1)
	maximum = 0.076 (at node 15)
Injected packet length average = 1
Accepted packet length average = 1
Total in-flight flits = 18 (0 measured)
latency change    = 1
throughput change = 1
Class 0:
Packet latency average = 19.966
	minimum = 7
	maximum = 48
Network latency average = 19.966
	minimum = 7
	maximum = 48
Slowest packet = 12446
Flit latency average = 19.966
	minimum = 7
	maximum = 48
Slowest flit = 12446
Fragmentation average = 0
	minimum = 0
	maximum = 0
Injected packet rate average = 0.0503125
	minimum = 0.043 (at node 7)
	maximum = 0.057 (at node 15)
Accepted packet rate average = 0.0495625
	minimum = 0.036 (at node 1)
	maximum = 0.068 (at node 15)
Injected flit rate average = 0.0503125
	minimum = 0.043 (at node 7)
	maximum = 0.057 (at node 15)
Accepted flit rate average= 0.0495625
	minimum = 0.036 (at node 1)
	maximum = 0.068 (at node 15)
Injected packet length average = 1
Accepted packet length average = 1
Total in-flight flits = 12 (0 measured)
latency change    = 0.00828867
throughput change = 0.0214376
Class 0:
Packet latency average = 20.2443
	minimum = 7
	maximum = 41
Network latency average = 20.2443
	minimum = 7
	maximum = 41
Slowest packet = 12788
Flit latency average = 20.2443
	minimum = 7
	maximum = 41
Slowest flit = 12788
Fragmentation average = 0
	minimum = 0
	maximum = 0
Injected packet rate average = 0.05525
	minimum = 0.036 (at node 2)
	maximum = 0.072 (at node 8)
Accepted packet rate average = 0.05475
	minimum = 0.028 (at node 9)
	maximum = 0.086 (at node 13)
Injected flit rate average = 0.05525
	minimum = 0.036 (at node 2)
	maximum = 0.072 (at node 8)
Accepted flit rate average= 0.05475
	minimum = 0.028 (at node 9)
	maximum = 0.086 (at node 13)
Injected packet length average = 1
Accepted packet length average = 1
Total in-flight flits = 16 (0 measured)
latency change    = 0.0137491
throughput change = 0.0947489
Warmed up ...Time used is 1500 cycles
Class 0:
Packet latency average = 20.4429
	minimum = 7
	maximum = 43
Network latency average = 20.4429
	minimum = 7
	maximum = 43
Slowest packet = 13089
Flit latency average = 20.638
	minimum = 7
	maximum = 43
Slowest flit = 13089
Fragmentation average = 0
	minimum = 0
	maximum = 0
Injected packet rate average = 0.04775
	minimum = 0.032 (at node 1)
	maximum = 0.064 (at node 8)
Accepted packet rate average = 0.048
	minimum = 0.034 (at node 7)
	maximum = 0.066 (at node 14)
Injected flit rate average = 0.04775
	minimum = 0.032 (at node 1)
	maximum = 0.064 (at node 8)
Accepted flit rate average= 0.048
	minimum = 0.034 (at node 7)
	maximum = 0.066 (at node 14)
Injected packet length average = 1
Accepted packet length average = 1
Total in-flight flits = 14 (14 measured)
latency change    = 0.00971693
throughput change = 0.140625
Class 0:
Packet latency average = 20.3212
	minimum = 7
	maximum = 64
Network latency average = 20.3212
	minimum = 7
	maximum = 64
Slowest packet = 13364
Flit latency average = 20.4224
	minimum = 7
	maximum = 64
Slowest flit = 13364
Fragmentation average = 0
	minimum = 0
	maximum = 0
Injected packet rate average = 0.047375
	minimum = 0.033 (at node 1)
	maximum = 0.067 (at node 8)
Accepted packet rate average = 0.0475
	minimum = 0.038 (at node 2)
	maximum = 0.061 (at node 14)
Injected flit rate average = 0.047375
	minimum = 0.033 (at node 1)
	maximum = 0.067 (at node 8)
Accepted flit rate average= 0.0475
	minimum = 0.038 (at node 2)
	maximum = 0.061 (at node 14)
Injected packet length average = 1
Accepted packet length average = 1
Total in-flight flits = 14 (14 measured)
latency change    = 0.00598872
throughput change = 0.0105263
Class 0:
Packet latency average = 20.1454
	minimum = 7
	maximum = 64
Network latency average = 20.1454
	minimum = 7
	maximum = 64
Slowest packet = 13364
Flit latency average = 20.215
	minimum = 7
	maximum = 64
Slowest flit = 13364
Fragmentation average = 0
	minimum = 0
	maximum = 0
Injected packet rate average = 0.0478333
	minimum = 0.0353333 (at node 1)
	maximum = 0.064 (at node 8)
Accepted packet rate average = 0.0476667
	minimum = 0.0386667 (at node 2)
	maximum = 0.0566667 (at node 11)
Injected flit rate average = 0.0478333
	minimum = 0.0353333 (at node 1)
	maximum = 0.064 (at node 8)
Accepted flit rate average= 0.0476667
	minimum = 0.0386667 (at node 2)
	maximum = 0.0566667 (at node 11)
Injected packet length average = 1
Accepted packet length average = 1
Total in-flight flits = 20 (20 measured)
latency change    = 0.00872887
throughput change = 0.0034965
Class 0:
Packet latency average = 20.0202
	minimum = 7
	maximum = 64
Network latency average = 20.0202
	minimum = 7
	maximum = 64
Slowest packet = 13364
Flit latency average = 20.0712
	minimum = 7
	maximum = 64
Slowest flit = 13364
Fragmentation average = 0
	minimum = 0
	maximum = 0
Injected packet rate average = 0.0499375
	minimum = 0.038 (at node 1)
	maximum = 0.0605 (at node 8)
Accepted packet rate average = 0.0500625
	minimum = 0.0425 (at node 0)
	maximum = 0.056 (at node 8)
Injected flit rate average = 0.0499375
	minimum = 0.038 (at node 1)
	maximum = 0.0605 (at node 8)
Accepted flit rate average= 0.0500625
	minimum = 0.0425 (at node 0)
	maximum = 0.056 (at node 8)
Injected packet length average = 1
Accepted packet length average = 1
Total in-flight flits = 12 (12 measured)
latency change    = 0.00625437
throughput change = 0.0478568
Draining all recorded packets ...
Draining remaining packets ...
Time taken is 3562 cycles
Class 0:
Packet latency average = 20.07
	minimum = 7
	maximum = 51
Network latency average = 20.07
	minimum = 7
	maximum = 51
Slowest packet = 14679
Flit latency average = 20.07
	minimum = 7
	maximum = 51
Slowest flit = 14679
Fragmentation average = 0
	minimum = 0
	maximum = 0
Injected packet rate average = 0.046625
	minimum = 0.03 (at node 4)
	maximum = 0.064 (at node 5)
Accepted packet rate average = 0.044625
	minimum = 0.034 (at node 10)
	maximum = 0.066 (at node 1)
Injected flit rate average = 0.046625
	minimum = 0.03 (at node 4)
	maximum = 0.064 (at node 5)
Accepted flit rate average= 0.044625
	minimum = 0.034 (at node 10)
	maximum = 0.066 (at node 1)
Injected packet length average = 1
Accepted packet length average = 1
Total in-flight flits = 16 (0 measured)
latency change    = 1
throughput change = 1
Class 0:
Packet latency average = 20.2389
	minimum = 7
	maximum = 51
Network latency average = 20.2389
	minimum = 7
	maximum = 51
Slowest packet = 14679
Flit latency average = 20.2389
	minimum = 7
	maximum = 51
Slowest flit = 14679
Fragmentation average = 0
	minimum = 0
	maximum = 0
Injected packet rate average = 0.0470625
	minimum = 0.036 (at node 3)
	maximum = 0.053 (at node 1)
Accepted packet rate average = 0.0465625
	minimum = 0.034 (at node 9)
	maximum = 0.059 (at node 14)
Injected flit rate average = 0.0470625
	minimum = 0.036 (at node 3)
	maximum = 0.053 (at node 1)
Accepted flit rate average= 0.0465625
	minimum = 0.034 (at node 9)
	maximum = 0.059 (at node 14)
Injected packet length average = 1
Accepted packet length average = 1
Total in-flight flits = 8 (0 measured)
latency change    = 0.00834521
throughput change = 0.0416107
Class 0:
Packet latency average = 20.224
	minimum = 7
	maximum = 47
Network latency average = 20.224
	minimum = 7
	maximum = 47
Slowest packet = 15646
Flit latency average = 20.224
	minimum = 7
	maximum = 47
Slowest flit = 15646
Fragmentation average = 0
	minimum = 0
	maximum = 0
Injected packet rate average = 0.0495
	minimum = 0.032 (at node 6)
	maximum = 0.068 (at node 12)
Accepted packet rate average = 0.048
	minimum = 0.028 (at node 14)
	maximum = 0.062 (at node 7)
Injected flit rate average = 0.0495
	minimum = 0.032 (at node 6)
	maximum = 0.068 (at node 12)
Accepted flit rate average= 0.048
	minimum = 0.028 (at node 14)
	maximum = 0.062 (at node 7)
Injected packet length average = 1
Accepted packet length average = 1
Total in-flight flits = 20 (0 measured)
latency change    = 0.000740104
throughput change = 0.0299479
Warmed up ...Time used is 1500 cycles
Class 0:
Packet latency average = 20.8704
	minimum = 7
	maximum = 52
Network latency average = 20.8704
	minimum = 7
	maximum = 52
Slowest packet = 16068
Flit latency average = 21.0578
	minimum = 7
	maximum = 52
Slowest flit = 16068
Fragmentation average = 0
	minimum = 0
	maximum = 0
Injected packet rate average = 0.049625
	minimum = 0.04 (at node 3)
	maximum = 0.06 (at node 4)
Accepted packet rate average = 0.04975
	minimum = 0.038 (at node 2)
	maximum = 0.068 (at node 5)
Injected flit rate average = 0.049625
	minimum = 0.04 (at node 3)
	maximum = 0.06 (at node 4)
Accepted flit rate average= 0.04975
	minimum = 0.038 (at node 2)
	maximum = 0.068 (at node 5)
Injected packet length average = 1
Accepted packet length average = 1
Total in-flight flits = 19 (19 measured)
latency change    = 0.0309727
throughput change = 0.0351759
Class 0:
Packet latency average = 20.8615
	minimum = 7
	maximum = 60
Network latency average = 20.8615
	minimum = 7
	maximum = 60
Slowest packet = 16137
Flit latency average = 20.9542
	minimum = 7
	maximum = 60
Slowest flit = 16137
Fragmentation average = 0
	minimum = 0
	maximum = 0
Injected packet rate average = 0.04975
	minimum = 0.04 (at node 6)
	maximum = 0.061 (at node 4)
Accepted packet rate average = 0.0504375
	minimum = 0.042 (at node 11)
	maximum = 0.068 (at node 5)
Injected flit rate average = 0.04975
	minimum = 0.04 (at node 6)
	maximum = 0.061 (at node 4)
Accepted flit rate average= 0.0504375
	minimum = 0.042 (at node 11)
	maximum = 0.068 (at node 5)
Injected packet length average = 1
Accepted packet length average = 1
Total in-flight flits = 9 (9 measured)
latency change    = 0.000425233
throughput change = 0.0136307
Class 0:
Packet latency average = 20.7433
	minimum = 7
	maximum = 60
Network latency average = 20.7433
	minimum = 7
	maximum = 60
Slowest packet = 16137
Flit latency average = 20.8084
	minimum = 7
	maximum = 60
Slowest flit = 16137
Fragmentation average = 0
	minimum = 0
	maximum = 0
Injected packet rate average = 0.0493333
	minimum = 0.0426667 (at node 13)
	maximum = 0.0613333 (at node 4)
Accepted packet rate average = 0.049375
	minimum = 0.0366667 (at node 9)
	maximum = 0.06 (at node 5)
Injected flit rate average = 0.0493333
	minimum = 0.0426667 (at node 13)
	maximum = 0.0613333 (at node 4)
Accepted flit rate average= 0.049375
	minimum = 0.0366667 (at node 9)
	maximum = 0.06 (at node 5)
Injected packet length average = 1
Accepted packet length average = 1
Total in-flight flits = 19 (19 measured)
latency change    = 0.00569589
throughput change = 0.021519
Draining all recorded packets ...
Draining remaining packets ...
Time taken is 3071 cycles
Class 0:
Packet latency average = 20.2668
	minimum = 7
	maximum = 55
Network latency average = 20.2668
	minimum = 7
	maximum = 55
Slowest packet = 17025
Flit latency average = 20.2668
	minimum = 7
	maximum = 55
Slowest flit = 17025
Fragmentation average = 0
	minimum = 0
	maximum = 0
Injected packet rate average = 0.04825
	minimum = 0.028 (at node 9)
	maximum = 0.068 (at node 2)
Accepted packet rate average = 0.046375
	minimum = 0.024 (at node 2)
	maximum = 0.066 (at node 13)
Injected flit rate average = 0.04825
	minimum = 0.028 (at node 9)
	maximum = 0.068 (at node 2)
Accepted flit rate average= 0.046375
	minimum = 0.024 (at node 2)
	maximum = 0.066 (at node 13)
Injected packet length average = 1
Accepted packet length average = 1
Total in-flight flits = 15 (0 measured)
latency change    = 1
throughput change = 1
Class 0:
Packet latency average = 20.4093
	minimum = 7
	maximum = 55
Network latency average = 20.4093
	minimum = 7
	maximum = 55
Slowest packet = 17025
Flit latency average = 20.4093
	minimum = 7
	maximum = 55
Slowest flit = 17025
Fragmentation average = 0
	minimum = 0
	maximum = 0
Injected packet rate average = 0.0501875
	minimum = 0.038 (at node 9)
	maximum = 0.064 (at node 2)
Accepted packet rate average = 0.049625
	minimum = 0.037 (at node 12)
	maximum = 0.063 (at node 13)
Injected flit rate average = 0.0501875
	minimum = 0.038 (at node 9)
	maximum = 0.064 (at node 2)
Accepted flit rate average= 0.049625
	minimum = 0.037 (at node 12)
	maximum = 0.063 (at node 13)
Injected packet length average = 1
Accepted packet length average = 1
Total in-flight flits = 9 (0 measured)
latency change    = 0.00698081
throughput change = 0.0654912
Class 0:
Packet latency average = 21.6357
	minimum = 7
	maximum = 86
Network latency average = 21.6357
	minimum = 7
	maximum = 86
Slowest packet = 17795
Flit latency average = 21.6357
	minimum = 7
	maximum = 86
Slowest flit = 17795
Fragmentation average = 0
	minimum = 0
	maximum = 0
Injected packet rate average = 0.0485
	minimum = 0.028 (at node 2)
	maximum = 0.07 (at node 13)
Accepted packet rate average = 0.048375
	minimum = 0.024 (at node 7)
	maximum = 0.068 (at node 4)
Injected flit rate average = 0.0485
	minimum = 0.028 (at node 2)
	maximum = 0.07 (at node 13)
Accepted flit rate average= 0.048375
	minimum = 0.024 (at node 7)
	maximum = 0.068 (at node 4)
Injected packet length average = 1
Accepted packet length average = 1
Total in-flight flits = 10 (0 measured)
latency change    = 0.0566814
throughput change = 0.0258398
Warmed up ...Time used is 1500 cycles
Class 0:
Packet latency average = 19.4974
	minimum = 7
	maximum = 48
Network latency average = 19.4974
	minimum = 7
	maximum = 48
Slowest packet = 18481
Flit latency average = 19.6057
	minimum = 7
	maximum = 48
Slowest flit = 18481
Fragmentation average = 0
	minimum = 0
	maximum = 0
Injected packet rate average = 0.050125
	minimum = 0.038 (at node 1)
	maximum = 0.066 (at node 13)
Accepted packet rate average = 0.0485
	minimum = 0.036 (at node 6)
	maximum = 0.064 (at node 0)
Injected flit rate average = 0.050125
	minimum = 0.038 (at node 1)
	maximum = 0.066 (at node 13)
Accepted flit rate average= 0.0485
	minimum = 0.036 (at node 6)
	maximum = 0.064 (at node 0)
Injected packet length average = 1
Accepted packet length average = 1
Total in-flight flits = 23 (23 measured)
latency change    = 0.109672
throughput change = 0.00257732
Class 0:
Packet latency average = 19.9499
	minimum = 7
	maximum = 48
Network latency average = 19.9499
	minimum = 7
	maximum = 48
Slowest packet = 18481
Flit latency average = 19.9963
	minimum = 7
	maximum = 48
Slowest flit = 18481
Fragmentation average = 0
	minimum = 0
	maximum = 0
Injected packet rate average = 0.050625
	minimum = 0.04 (at node 14)
	maximum = 0.062 (at node 6)
Accepted packet rate average = 0.0505625
	minimum = 0.039 (at node 14)
	maximum = 0.071 (at node 0)
Injected flit rate average = 0.050625
	minimum = 0.04 (at node 14)
	maximum = 0.062 (at node 6)
Accepted flit rate average= 0.0505625
	minimum = 0.039 (at node 14)
	maximum = 0.071 (at node 0)
Injected packet length average = 1
Accepted packet length average = 1
Total in-flight flits = 11 (11 measured)
latency change    = 0.0226859
throughput change = 0.0407911
Class 0:
Packet latency average = 20.0645
	minimum = 7
	maximum = 48
Network latency average = 20.0645
	minimum = 7
	maximum = 48
Slowest packet = 18481
Flit latency average = 20.095
	minimum = 7
	maximum = 48
Slowest flit = 18481
Fragmentation average = 0
	minimum = 0
	maximum = 0
Injected packet rate average = 0.0495833
	minimum = 0.042 (at node 2)
	maximum = 0.0586667 (at node 6)
Accepted packet rate average = 0.0495417
	minimum = 0.0386667 (at node 5)
	maximum = 0.0613333 (at node 7)
Injected flit rate average = 0.0495833
	minimum = 0.042 (at node 2)
	maximum = 0.0586667 (at node 6)
Accepted flit rate average= 0.0495417
	minimum = 0.0386667 (at node 5)
	maximum = 0.0613333 (at node 7)
Injected packet length average = 1
Accepted packet length average = 1
Total in-flight flits = 11 (11 measured)
latency change    = 0.0057078
throughput change = 0.0206056
Class 0:
Packet latency average = 20.1691
	minimum = 7
	maximum = 57
Network latency average = 20.1691
	minimum = 7
	maximum = 57
Slowest packet = 19602
Flit latency average = 20.1915
	minimum = 7
	maximum = 57
Slowest flit = 19602
Fragmentation average = 0
	minimum = 0
	maximum = 0
Injected packet rate average = 0.049375
	minimum = 0.0415 (at node 1)
	maximum = 0.0595 (at node 6)
Accepted packet rate average = 0.0492812
	minimum = 0.0375 (at node 2)
	maximum = 0.062 (at node 7)
Injected flit rate average = 0.049375
	minimum = 0.0415 (at node 1)
	maximum = 0.0595 (at node 6)
Accepted flit rate average= 0.0492812
	minimum = 0.0375 (at node 2)
	maximum = 0.062 (at node 7)
Injected packet length average = 1
Accepted packet length average = 1
Total in-flight flits = 13 (13 measured)
latency change    = 0.0051887
throughput change = 0.0052843
Draining all recorded packets ...
Draining remaining packets ...
Time taken is 3582 cycles
Class 0:
Packet latency average = 19.6497
	minimum = 7
	maximum = 48
Network latency average = 19.6497
	minimum = 7
	maximum = 48
Slowest packet = 19960
Flit latency average = 19.6497
	minimum = 7
	maximum = 48
Slowest flit = 19960
Fragmentation average = 0
	minimum = 0
	maximum = 0
Injected packet rate average = 0.048125
	minimum = 0.026 (at node 5)
	maximum = 0.068 (at node 10)
Accepted packet rate average = 0.04675
	minimum = 0.036 (at node 12)
	maximum = 0.058 (at node 3)
Injected flit rate average = 0.048125
	minimum = 0.026 (at node 5)
	maximum = 0.068 (at node 10)
Accepted flit rate average= 0.04675
	minimum = 0.036 (at node 12)
	maximum = 0.058 (at node 3)
Injected packet length average = 1
Accepted packet length average = 1
Total in-flight flits = 11 (0 measured)
latency change    = 1
throughput change = 1
Class 0:
Packet latency average = 20.0268
	minimum = 7
	maximum = 48
Network latency average = 20.0268
	minimum = 7
	maximum = 48
Slowest packet = 19960
Flit latency average = 20.0268
	minimum = 7
	maximum = 48
Slowest flit = 19960
Fragmentation average = 0
	minimum = 0
	maximum = 0
Injected packet rate average = 0.0479375
	minimum = 0.029 (at node 5)
	maximum = 0.057 (at node 3)
Accepted packet rate average = 0.0466875
	minimum = 0.036 (at node 15)
	maximum = 0.057 (at node 13)
Injected flit rate average = 0.0479375
	minimum = 0.029 (at node 5)
	maximum = 0.057 (at node 3)
Accepted flit rate average= 0.0466875
	minimum = 0.036 (at node 15)
	maximum = 0.057 (at node 13)
Injected packet length average = 1
Accepted packet length average = 1
Total in-flight flits = 20 (0 measured)
latency change    = 0.0188269
throughput change = 0.00133869
Class 0:
Packet latency average = 19.5256
	minimum = 7
	maximum = 46
Network latency average = 19.5256
	minimum = 7
	maximum = 46
Slowest packet = 20672
Flit latency average = 19.5256
	minimum = 7
	maximum = 46
Slowest flit = 20672
Fragmentation average = 0
	minimum = 0
	maximum = 0
Injected packet rate average = 0.045625
	minimum = 0.026 (at node 12)
	maximum = 0.08 (at node 3)
Accepted packet rate average = 0.046375
	minimum = 0.03 (at node 8)
	maximum = 0.07 (at node 13)
Injected flit rate average = 0.045625
	minimum = 0.026 (at node 12)
	maximum = 0.08 (at node 3)
Accepted flit rate average= 0.046375
	minimum = 0.03 (at node 8)
	maximum = 0.07 (at node 13)
Injected packet length average = 1
Accepted packet length average = 1
Total in-flight flits = 14 (0 measured)
latency change    = 0.0256672
throughput change = 0.00673854
Warmed up ...Time used is 1500 cycles
Class 0:
Packet latency average = 20.7071
	minimum = 7
	maximum = 55
Network latency average = 20.7071
	minimum = 7
	maximum = 55
Slowest packet = 21081
Flit latency average = 20.7659
	minimum = 7
	maximum = 55
Slowest flit = 21081
Fragmentation average = 0
	minimum = 0
	maximum = 0
Injected packet rate average = 0.050625
	minimum = 0.028 (at node 2)
	maximum = 0.074 (at node 7)
Accepted packet rate average = 0.05125
	minimum = 0.036 (at node 2)
	maximum = 0.07 (at node 8)
Injected flit rate average = 0.050625
	minimum = 0.028 (at node 2)
	maximum = 0.074 (at node 7)
Accepted flit rate average= 0.05125
	minimum = 0.036 (at node 2)
	maximum = 0.07 (at node 8)
Injected packet length average = 1
Accepted packet length average = 1
Total in-flight flits = 9 (9 measured)
latency change    = 0.0570561
throughput change = 0.095122
Class 0:
Packet latency average = 20.7178
	minimum = 7
	maximum = 62
Network latency average = 20.7178
	minimum = 7
	maximum = 62
Slowest packet = 21573
Flit latency average = 20.7467
	minimum = 7
	maximum = 62
Slowest flit = 21573
Fragmentation average = 0
	minimum = 0
	maximum = 0
Injected packet rate average = 0.0521875
	minimum = 0.04 (at node 9)
	maximum = 0.062 (at node 14)
Accepted packet rate average = 0.0518125
	minimum = 0.035 (at node 2)
	maximum = 0.065 (at node 8)
Injected flit rate average = 0.0521875
	minimum = 0.04 (at node 9)
	maximum = 0.062 (at node 14)
Accepted flit rate average= 0.0518125
	minimum = 0.035 (at node 2)
	maximum = 0.065 (at node 8)
Injected packet length average = 1
Accepted packet length average = 1
Total in-flight flits = 20 (20 measured)
latency change    = 0.000517464
throughput change = 0.0108565
Class 0:
Packet latency average = 20.9173
	minimum = 7
	maximum = 62
Network latency average = 20.9173
	minimum = 7
	maximum = 62
Slowest packet = 21573
Flit latency average = 20.9341
	minimum = 7
	maximum = 62
Slowest flit = 21573
Fragmentation average = 0
	minimum = 0
	maximum = 0
Injected packet rate average = 0.052625
	minimum = 0.04 (at node 1)
	maximum = 0.0646667 (at node 14)
Accepted packet rate average = 0.0524583
	minimum = 0.042 (at node 12)
	maximum = 0.062 (at node 0)
Injected flit rate average = 0.052625
	minimum = 0.04 (at node 1)
	maximum = 0.0646667 (at node 14)
Accepted flit rate average= 0.0524583
	minimum = 0.042 (at node 12)
	maximum = 0.062 (at node 0)
Injected packet length average = 1
Accepted packet length average = 1
Total in-flight flits = 18 (18 measured)
latency change    = 0.00953651
throughput change = 0.0123114
Class 0:
Packet latency average = 20.7616
	minimum = 7
	maximum = 62
Network latency average = 20.7616
	minimum = 7
	maximum = 62
Slowest packet = 21573
Flit latency average = 20.7757
	minimum = 7
	maximum = 62
Slowest flit = 21573
Fragmentation average = 0
	minimum = 0
	maximum = 0
Injected packet rate average = 0.05175
	minimum = 0.0405 (at node 9)
	maximum = 0.065 (at node 14)
Accepted packet rate average = 0.0516875
	minimum = 0.043 (at node 9)
	maximum = 0.0615 (at node 15)
Injected flit rate average = 0.05175
	minimum = 0.0405 (at node 9)
	maximum = 0.065 (at node 14)
Accepted flit rate average= 0.0516875
	minimum = 0.043 (at node 9)
	maximum = 0.0615 (at node 15)
Injected packet length average = 1
Accepted packet length average = 1
Total in-flight flits = 16 (16 measured)
latency change    = 0.00749864
throughput change = 0.0149133
Draining all recorded packets ...
Draining remaining packets ...
Time taken is 3567 cycles
Class 0:
Packet latency average = 19.9183
	minimum = 7
	maximum = 60
Network latency average = 19.9183
	minimum = 7
	maximum = 60
Slowest packet = 22594
Flit latency average = 19.9183
	minimum = 7
	maximum = 60
Slowest flit = 22594
Fragmentation average = 0
	minimum = 0
	maximum = 0
Injected packet rate average = 0.05375
	minimum = 0.04 (at node 9)
	maximum = 0.07 (at node 14)
Accepted packet rate average = 0.052
	minimum = 0.036 (at node 1)
	maximum = 0.07 (at node 2)
Injected flit rate average = 0.05375
	minimum = 0.04 (at node 9)
	maximum = 0.07 (at node 14)
Accepted flit rate average= 0.052
	minimum = 0.036 (at node 1)
	maximum = 0.07 (at node 2)
Injected packet length average = 1
Accepted packet length average = 1
Total in-flight flits = 14 (0 measured)
latency change    = 1
throughput change = 1
Class 0:
Packet latency average = 20.0495
	minimum = 7
	maximum = 60
Network latency average = 20.0495
	minimum = 7
	maximum = 60
Slowest packet = 22594
Flit latency average = 20.0495
	minimum = 7
	maximum = 60
Slowest flit = 22594
Fragmentation average = 0
	minimum = 0
	maximum = 0
Injected packet rate average = 0.05275
	minimum = 0.04 (at node 9)
	maximum = 0.071 (at node 15)
Accepted packet rate average = 0.0518125
	minimum = 0.046 (at node 0)
	maximum = 0.068 (at node 2)
Injected flit rate average = 0.05275
	minimum = 0.04 (at node 9)
	maximum = 0.071 (at node 15)
Accepted flit rate average= 0.0518125
	minimum = 0.046 (at node 0)
	maximum = 0.068 (at node 2)
Injected packet length average = 1
Accepted packet length average = 1
Total in-flight flits = 15 (0 measured)
latency change    = 0.00654322
throughput change = 0.00361882
Class 0:
Packet latency average = 19.8735
	minimum = 7
	maximum = 43
Network latency average = 19.8735
	minimum = 7
	maximum = 43
Slowest packet = 23415
Flit latency average = 19.8735
	minimum = 7
	maximum = 43
Slowest flit = 23415
Fragmentation average = 0
	minimum = 0
	maximum = 0
Injected packet rate average = 0.052875
	minimum = 0.038 (at node 13)
	maximum = 0.07 (at node 1)
Accepted packet rate average = 0.052375
	minimum = 0.036 (at node 12)
	maximum = 0.072 (at node 4)
Injected flit rate average = 0.052875
	minimum = 0.038 (at node 13)
	maximum = 0.07 (at node 1)
Accepted flit rate average= 0.052375
	minimum = 0.036 (at node 12)
	maximum = 0.072 (at node 4)
Injected packet length average = 1
Accepted packet length average = 1
Total in-flight flits = 19 (0 measured)
latency change    = 0.00885344
throughput change = 0.0107399
Warmed up ...Time used is 1500 cycles
Class 0:
Packet latency average = 20.4835
	minimum = 7
	maximum = 54
Network latency average = 20.4835
	minimum = 7
	maximum = 54
Slowest packet = 23961
Flit latency average = 20.6602
	minimum = 7
	maximum = 54
Slowest flit = 23961
Fragmentation average = 0
	minimum = 0
	maximum = 0
Injected packet rate average = 0.05075
	minimum = 0.04 (at node 1)
	maximum = 0.068 (at node 14)
Accepted packet rate average = 0.0515
	minimum = 0.028 (at node 3)
	maximum = 0.078 (at node 9)
Injected flit rate average = 0.05075
	minimum = 0.04 (at node 1)
	maximum = 0.068 (at node 14)
Accepted flit rate average= 0.0515
	minimum = 0.028 (at node 3)
	maximum = 0.078 (at node 9)
Injected packet length average = 1
Accepted packet length average = 1
Total in-flight flits = 13 (13 measured)
latency change    = 0.0297778
throughput change = 0.0169903
Class 0:
Packet latency average = 20.4304
	minimum = 7
	maximum = 77
Network latency average = 20.4304
	minimum = 7
	maximum = 77
Slowest packet = 24244
Flit latency average = 20.5224
	minimum = 7
	maximum = 77
Slowest flit = 24244
Fragmentation average = 0
	minimum = 0
	maximum = 0
Injected packet rate average = 0.0500625
	minimum = 0.033 (at node 5)
	maximum = 0.058 (at node 4)
Accepted packet rate average = 0.050125
	minimum = 0.035 (at node 3)
	maximum = 0.059 (at node 9)
Injected flit rate average = 0.0500625
	minimum = 0.033 (at node 5)
	maximum = 0.058 (at node 4)
Accepted flit rate average= 0.050125
	minimum = 0.035 (at node 3)
	maximum = 0.059 (at node 9)
Injected packet length average = 1
Accepted packet length average = 1
Total in-flight flits = 18 (18 measured)
latency change    = 0.00259734
throughput change = 0.0274314
Class 0:
Packet latency average = 20.5017
	minimum = 7
	maximum = 77
Network latency average = 20.5017
	minimum = 7
	maximum = 77
Slowest packet = 24244
Flit latency average = 20.5627
	minimum = 7
	maximum = 77
Slowest flit = 24244
Fragmentation average = 0
	minimum = 0
	maximum = 0
Injected packet rate average = 0.0496667
	minimum = 0.0406667 (at node 5)
	maximum = 0.0566667 (at node 4)
Accepted packet rate average = 0.0495417
	minimum = 0.0346667 (at node 3)
	maximum = 0.0593333 (at node 9)
Injected flit rate average = 0.0496667
	minimum = 0.0406667 (at node 5)
	maximum = 0.0566667 (at node 4)
Accepted flit rate average= 0.0495417
	minimum = 0.0346667 (at node 3)
	maximum = 0.0593333 (at node 9)
Injected packet length average = 1
Accepted packet length average = 1
Total in-flight flits = 22 (22 measured)
latency change    = 0.00347842
throughput change = 0.0117746
Draining all recorded packets ...
Draining remaining packets ...
Time taken is 3059 cycles
Class 0:
Packet latency average = 19.5253
	minimum = 7
	maximum = 51
Network latency average = 19.5253
	minimum = 7
	maximum = 51
Slowest packet = 25205
Flit latency average = 19.5253
	minimum = 7
	maximum = 51
Slowest flit = 25205
Fragmentation average = 0
	minimum = 0
	maximum = 0
Injected packet rate average = 0.046125
	minimum = 0.026 (at node 7)
	maximum = 0.066 (at node 4)
Accepted packet rate average = 0.0445
	minimum = 0.024 (at node 14)
	maximum = 0.064 (at node 5)
Injected flit rate average = 0.046125
	minimum = 0.026 (at node 7)
	maximum = 0.066 (at node 4)
Accepted flit rate average= 0.0445
	minimum = 0.024 (at node 14)
	maximum = 0.064 (at node 5)
Injected packet length average = 1
Accepted packet length average = 1
Total in-flight flits = 13 (0 measured)
latency change    = 1
throughput change = 1
Class 0:
Packet latency average = 19.5378
	minimum = 7
	maximum = 51
Network latency average = 19.5378
	minimum = 7
	maximum = 51
Slowest packet = 25205
Flit latency average = 19.5378
	minimum = 7
	maximum = 51
Slowest flit = 25205
Fragmentation average = 0
	minimum = 0
	maximum = 0
Injected packet rate average = 0.04675
	minimum = 0.025 (at node 7)
	maximum = 0.06 (at node 5)
Accepted packet rate average = 0.0454375
	minimum = 0.029 (at node 0)
	maximum = 0.058 (at node 9)
Injected flit rate average = 0.04675
	minimum = 0.025 (at node 7)
	maximum = 0.06 (at node 5)
Accepted flit rate average= 0.0454375
	minimum = 0.029 (at node 0)
	maximum = 0.058 (at node 9)
Injected packet length average = 1
Accepted packet length average = 1
Total in-flight flits = 21 (0 measured)
latency change    = 0.000642128
throughput change = 0.0206327
Class 0:
Packet latency average = 19.9854
	minimum = 7
	maximum = 44
Network latency average = 19.9854
	minimum = 7
	maximum = 44
Slowest packet = 26045
Flit latency average = 19.9854
	minimum = 7
	maximum = 44
Slowest flit = 26045
Fragmentation average = 0
	minimum = 0
	maximum = 0
Injected packet rate average = 0.050875
	minimum = 0.036 (at node 8)
	maximum = 0.072 (at node 2)
Accepted packet rate average = 0.05125
	minimum = 0.036 (at node 1)
	maximum = 0.074 (at node 12)
Injected flit rate average = 0.050875
	minimum = 0.036 (at node 8)
	maximum = 0.072 (at node 2)
Accepted flit rate average= 0.05125
	minimum = 0.036 (at node 1)
	maximum = 0.074 (at node 12)
Injected packet length average = 1
Accepted packet length average = 1
Total in-flight flits = 18 (0 measured)
latency change    = 0.0223933
throughput change = 0.113415
Warmed up ...Time used is 1500 cycles
Class 0:
Packet latency average = 20.0493
	minimum = 7
	maximum = 46
Network latency average = 20.0493
	minimum = 7
	maximum = 46
Slowest packet = 26581
Flit latency average = 20.2264
	minimum = 7
	maximum = 46
Slowest flit = 26581
Fragmentation average = 0
	minimum = 0
	maximum = 0
Injected packet rate average = 0.053625
	minimum = 0.038 (at node 8)
	maximum = 0.072 (at node 7)
Accepted packet rate average = 0.053
	minimum = 0.036 (at node 3)
	maximum = 0.066 (at node 0)
Injected flit rate average = 0.053625
	minimum = 0.038 (at node 8)
	maximum = 0.072 (at node 7)
Accepted flit rate average= 0.053
	minimum = 0.036 (at node 3)
	maximum = 0.066 (at node 0)
Injected packet length average = 1
Accepted packet length average = 1
Total in-flight flits = 23 (23 measured)
latency change    = 0.00318691
throughput change = 0.0330189
Class 0:
Packet latency average = 20.3083
	minimum = 7
	maximum = 46
Network latency average = 20.3083
	minimum = 7
	maximum = 46
Slowest packet = 26581
Flit latency average = 20.396
	minimum = 7
	maximum = 46
Slowest flit = 26581
Fragmentation average = 0
	minimum = 0
	maximum = 0
Injected packet rate average = 0.0506875
	minimum = 0.039 (at node 12)
	maximum = 0.059 (at node 11)
Accepted packet rate average = 0.0501875
	minimum = 0.04 (at node 6)
	maximum = 0.057 (at node 9)
Injected flit rate average = 0.0506875
	minimum = 0.039 (at node 12)
	maximum = 0.059 (at node 11)
Accepted flit rate average= 0.0501875
	minimum = 0.04 (at node 6)
	maximum = 0.057 (at node 9)
Injected packet length average = 1
Accepted packet length average = 1
Total in-flight flits = 26 (26 measured)
latency change    = 0.0127544
throughput change = 0.0560399
Class 0:
Packet latency average = 20.5059
	minimum = 7
	maximum = 62
Network latency average = 20.5059
	minimum = 7
	maximum = 62
Slowest packet = 27255
Flit latency average = 20.5617
	minimum = 7
	maximum = 62
Slowest flit = 27255
Fragmentation average = 0
	minimum = 0
	maximum = 0
Injected packet rate average = 0.0496667
	minimum = 0.0393333 (at node 12)
	maximum = 0.0553333 (at node 11)
Accepted packet rate average = 0.05
	minimum = 0.0406667 (at node 8)
	maximum = 0.056 (at node 15)
Injected flit rate average = 0.0496667
	minimum = 0.0393333 (at node 12)
	maximum = 0.0553333 (at node 11)
Accepted flit rate average= 0.05
	minimum = 0.0406667 (at node 8)
	maximum = 0.056 (at node 15)
Injected packet length average = 1
Accepted packet length average = 1
Total in-flight flits = 10 (10 measured)
latency change    = 0.00963828
throughput change = 0.00375
Class 0:
Packet latency average = 20.5254
	minimum = 7
	maximum = 62
Network latency average = 20.5254
	minimum = 7
	maximum = 62
Slowest packet = 27255
Flit latency average = 20.5676
	minimum = 7
	maximum = 62
Slowest flit = 27255
Fragmentation average = 0
	minimum = 0
	maximum = 0
Injected packet rate average = 0.0492187
	minimum = 0.0405 (at node 4)
	maximum = 0.0585 (at node 14)
Accepted packet rate average = 0.0492187
	minimum = 0.039 (at node 8)
	maximum = 0.0605 (at node 0)
Injected flit rate average = 0.0492187
	minimum = 0.0405 (at node 4)
	maximum = 0.0585 (at node 14)
Accepted flit rate average= 0.0492187
	minimum = 0.039 (at node 8)
	maximum = 0.0605 (at node 0)
Injected packet length average = 1
Accepted packet length average = 1
Total in-flight flits = 18 (18 measured)
latency change    = 0.000947468
throughput change = 0.015873
Class 0:
Packet latency average = 20.4564
	minimum = 7
	maximum = 62
Network latency average = 20.4564
	minimum = 7
	maximum = 62
Slowest packet = 27255
Flit latency average = 20.4905
	minimum = 7
	maximum = 62
Slowest flit = 27255
Fragmentation average = 0
	minimum = 0
	maximum = 0
Injected packet rate average = 0.04965
	minimum = 0.042 (at node 4)
	maximum = 0.0568 (at node 14)
Accepted packet rate average = 0.0498
	minimum = 0.038 (at node 8)
	maximum = 0.058 (at node 0)
Injected flit rate average = 0.04965
	minimum = 0.042 (at node 4)
	maximum = 0.0568 (at node 14)
Accepted flit rate average= 0.0498
	minimum = 0.038 (at node 8)
	maximum = 0.058 (at node 0)
Injected packet length average = 1
Accepted packet length average = 1
Total in-flight flits = 12 (12 measured)
latency change    = 0.00336988
throughput change = 0.0116717
Draining all recorded packets ...
Draining remaining packets ...
Time taken is 4068 cycles
Class 0:
Packet latency average = 20.8246
	minimum = 7
	maximum = 43
Network latency average = 20.8168
	minimum = 7
	maximum = 43
Slowest packet = 28423
Flit latency average = 20.8168
	minimum = 7
	maximum = 43
Slowest flit = 28423
Fragmentation average = 0
	minimum = 0
	maximum = 0
Injected packet rate average = 0.04925
	minimum = 0.038 (at node 0)
	maximum = 0.062 (at node 4)
Accepted packet rate average = 0.04775
	minimum = 0.022 (at node 2)
	maximum = 0.066 (at node 12)
Injected flit rate average = 0.04925
	minimum = 0.038 (at node 0)
	maximum = 0.062 (at node 4)
Accepted flit rate average= 0.04775
	minimum = 0.022 (at node 2)
	maximum = 0.066 (at node 12)
Injected packet length average = 1
Accepted packet length average = 1
Total in-flight flits = 12 (0 measured)
latency change    = 1
throughput change = 1
Class 0:
Packet latency average = 20.1907
	minimum = 7
	maximum = 53
Network latency average = 20.1869
	minimum = 7
	maximum = 53
Slowest packet = 28597
Flit latency average = 20.1869
	minimum = 7
	maximum = 53
Slowest flit = 28597
Fragmentation average = 0
	minimum = 0
	maximum = 0
Injected packet rate average = 0.0504375
	minimum = 0.041 (at node 11)
	maximum = 0.062 (at node 3)
Accepted packet rate average = 0.0495
	minimum = 0.028 (at node 2)
	maximum = 0.062 (at node 6)
Injected flit rate average = 0.0504375
	minimum = 0.041 (at node 11)
	maximum = 0.062 (at node 3)
Accepted flit rate average= 0.0495
	minimum = 0.028 (at node 2)
	maximum = 0.062 (at node 6)
Injected packet length average = 1
Accepted packet length average = 1
Total in-flight flits = 15 (0 measured)
latency change    = 0.0313982
throughput change = 0.0353535
Class 0:
Packet latency average = 19.9973
	minimum = 7
	maximum = 43
Network latency average = 19.9973
	minimum = 7
	maximum = 43
Slowest packet = 29118
Flit latency average = 19.9973
	minimum = 7
	maximum = 43
Slowest flit = 29118
Fragmentation average = 0
	minimum = 0
	maximum = 0
Injected packet rate average = 0.045625
	minimum = 0.032 (at node 7)
	maximum = 0.064 (at node 5)
Accepted packet rate average = 0.04575
	minimum = 0.026 (at node 13)
	maximum = 0.066 (at node 6)
Injected flit rate average = 0.045625
	minimum = 0.032 (at node 7)
	maximum = 0.064 (at node 5)
Accepted flit rate average= 0.04575
	minimum = 0.026 (at node 13)
	maximum = 0.066 (at node 6)
Injected packet length average = 1
Accepted packet length average = 1
Total in-flight flits = 14 (0 measured)
latency change    = 0.00967076
throughput change = 0.0819672
Warmed up ...Time used is 1500 cycles
Class 0:
Packet latency average = 20.6057
	minimum = 7
	maximum = 46
Network latency average = 20.6057
	minimum = 7
	maximum = 46
Slowest packet = 29750
Flit latency average = 20.694
	minimum = 7
	maximum = 46
Slowest flit = 29750
Fragmentation average = 0
	minimum = 0
	maximum = 0
Injected packet rate average = 0.051125
	minimum = 0.036 (at node 2)
	maximum = 0.062 (at node 15)
Accepted packet rate average = 0.05025
	minimum = 0.036 (at node 5)
	maximum = 0.066 (at node 4)
Injected flit rate average = 0.051125
	minimum = 0.036 (at node 2)
	maximum = 0.062 (at node 15)
Accepted flit rate average= 0.05025
	minimum = 0.036 (at node 5)
	maximum = 0.066 (at node 4)
Injected packet length average = 1
Accepted packet length average = 1
Total in-flight flits = 21 (21 measured)
latency change    = 0.029526
throughput change = 0.0895522
Class 0:
Packet latency average = 20.7969
	minimum = 7
	maximum = 67
Network latency average = 20.7969
	minimum = 7
	maximum = 67
Slowest packet = 29817
Flit latency average = 20.8384
	minimum = 7
	maximum = 67
Slowest flit = 29817
Fragmentation average = 0
	minimum = 0
	maximum = 0
Injected packet rate average = 0.049625
	minimum = 0.037 (at node 6)
	maximum = 0.061 (at node 7)
Accepted packet rate average = 0.0495
	minimum = 0.042 (at node 10)
	maximum = 0.056 (at node 7)
Injected flit rate average = 0.049625
	minimum = 0.037 (at node 6)
	maximum = 0.061 (at node 7)
Accepted flit rate average= 0.0495
	minimum = 0.042 (at node 10)
	maximum = 0.056 (at node 7)
Injected packet length average = 1
Accepted packet length average = 1
Total in-flight flits = 16 (16 measured)
latency change    = 0.00919584
throughput change = 0.0151515
Class 0:
Packet latency average = 20.631
	minimum = 7
	maximum = 67
Network latency average = 20.631
	minimum = 7
	maximum = 67
Slowest packet = 29817
Flit latency average = 20.661
	minimum = 7
	maximum = 67
Slowest flit = 29817
Fragmentation average = 0
	minimum = 0
	maximum = 0
Injected packet rate average = 0.0487917
	minimum = 0.0406667 (at node 6)
	maximum = 0.0593333 (at node 7)
Accepted packet rate average = 0.0489167
	minimum = 0.0413333 (at node 5)
	maximum = 0.0546667 (at node 4)
Injected flit rate average = 0.0487917
	minimum = 0.0406667 (at node 6)
	maximum = 0.0593333 (at node 7)
Accepted flit rate average= 0.0489167
	minimum = 0.0413333 (at node 5)
	maximum = 0.0546667 (at node 4)
Injected packet length average = 1
Accepted packet length average = 1
Total in-flight flits = 11 (11 measured)
latency change    = 0.00804035
throughput change = 0.011925
Class 0:
Packet latency average = 20.5192
	minimum = 7
	maximum = 67
Network latency average = 20.5192
	minimum = 7
	maximum = 67
Slowest packet = 29817
Flit latency average = 20.5434
	minimum = 7
	maximum = 67
Slowest flit = 29817
Fragmentation average = 0
	minimum = 0
	maximum = 0
Injected packet rate average = 0.0476562
	minimum = 0.0445 (at node 12)
	maximum = 0.0555 (at node 7)
Accepted packet rate average = 0.0475625
	minimum = 0.0415 (at node 5)
	maximum = 0.0545 (at node 7)
Injected flit rate average = 0.0476562
	minimum = 0.0445 (at node 12)
	maximum = 0.0555 (at node 7)
Accepted flit rate average= 0.0475625
	minimum = 0.0415 (at node 5)
	maximum = 0.0545 (at node 7)
Injected packet length average = 1
Accepted packet length average = 1
Total in-flight flits = 17 (17 measured)
latency change    = 0.00544873
throughput change = 0.0284713
Draining all recorded packets ...
Draining remaining packets ...
Time taken is 3549 cycles
Class 0:
Packet latency average = 20.3662
	minimum = 7
	maximum = 48
Network latency average = 20.3662
	minimum = 7
	maximum = 48
Slowest packet = 31189
Flit latency average = 20.3662
	minimum = 7
	maximum = 48
Slowest flit = 31189
Fragmentation average = 0
	minimum = 0
	maximum = 0
Injected packet rate average = 0.049875
	minimum = 0.028 (at node 15)
	maximum = 0.066 (at node 1)
Accepted packet rate average = 0.048125
	minimum = 0.034 (at node 10)
	maximum = 0.064 (at node 1)
Injected flit rate average = 0.049875
	minimum = 0.028 (at node 15)
	maximum = 0.066 (at node 1)
Accepted flit rate average= 0.048125
	minimum = 0.034 (at node 10)
	maximum = 0.064 (at node 1)
Injected packet length average = 1
Accepted packet length average = 1
Total in-flight flits = 14 (0 measured)
latency change    = 1
throughput change = 1
Class 0:
Packet latency average = 20.2046
	minimum = 7
	maximum = 51
Network latency average = 20.2046
	minimum = 7
	maximum = 51
Slowest packet = 31513
Flit latency average = 20.2046
	minimum = 7
	maximum = 51
Slowest flit = 31513
Fragmentation average = 0
	minimum = 0
	maximum = 0
Injected packet rate average = 0.0500625
	minimum = 0.034 (at node 15)
	maximum = 0.065 (at node 1)
Accepted packet rate average = 0.0491875
	minimum = 0.036 (at node 10)
	maximum = 0.061 (at node 1)
Injected flit rate average = 0.0500625
	minimum = 0.034 (at node 15)
	maximum = 0.065 (at node 1)
Accepted flit rate average= 0.0491875
	minimum = 0.036 (at node 10)
	maximum = 0.061 (at node 1)
Injected packet length average = 1
Accepted packet length average = 1
Total in-flight flits = 14 (0 measured)
latency change    = 0.00800113
throughput change = 0.021601
Class 0:
Packet latency average = 19.7057
	minimum = 7
	maximum = 47
Network latency average = 19.7057
	minimum = 7
	maximum = 47
Slowest packet = 32015
Flit latency average = 19.7057
	minimum = 7
	maximum = 47
Slowest flit = 32015
Fragmentation average = 0
	minimum = 0
	maximum = 0
Injected packet rate average = 0.050875
	minimum = 0.032 (at node 15)
	maximum = 0.066 (at node 5)
Accepted packet rate average = 0.050125
	minimum = 0.026 (at node 14)
	maximum = 0.072 (at node 6)
Injected flit rate average = 0.050875
	minimum = 0.032 (at node 15)
	maximum = 0.066 (at node 5)
Accepted flit rate average= 0.050125
	minimum = 0.026 (at node 14)
	maximum = 0.072 (at node 6)
Injected packet length average = 1
Accepted packet length average = 1
Total in-flight flits = 20 (0 measured)
latency change    = 0.0253144
throughput change = 0.0187032
Warmed up ...Time used is 1500 cycles
Class 0:
Packet latency average = 19.8701
	minimum = 7
	maximum = 46
Network latency average = 19.8701
	minimum = 7
	maximum = 46
Slowest packet = 32194
Flit latency average = 20.0257
	minimum = 7
	maximum = 46
Slowest flit = 32194
Fragmentation average = 0
	minimum = 0
	maximum = 0
Injected packet rate average = 0.05375
	minimum = 0.042 (at node 14)
	maximum = 0.066 (at node 1)
Accepted packet rate average = 0.0535
	minimum = 0.034 (at node 3)
	maximum = 0.068 (at node 2)
Injected flit rate average = 0.05375
	minimum = 0.042 (at node 14)
	maximum = 0.066 (at node 1)
Accepted flit rate average= 0.0535
	minimum = 0.034 (at node 3)
	maximum = 0.068 (at node 2)
Injected packet length average = 1
Accepted packet length average = 1
Total in-flight flits = 22 (22 measured)
latency change    = 0.00827185
throughput change = 0.0630841
Class 0:
Packet latency average = 20.0504
	minimum = 7
	maximum = 46
Network latency average = 20.0504
	minimum = 7
	maximum = 46
Slowest packet = 32194
Flit latency average = 20.1297
	minimum = 7
	maximum = 46
Slowest flit = 32194
Fragmentation average = 0
	minimum = 0
	maximum = 0
Injected packet rate average = 0.0494375
	minimum = 0.036 (at node 13)
	maximum = 0.064 (at node 8)
Accepted packet rate average = 0.049625
	minimum = 0.04 (at node 3)
	maximum = 0.058 (at node 5)
Injected flit rate average = 0.0494375
	minimum = 0.036 (at node 13)
	maximum = 0.064 (at node 8)
Accepted flit rate average= 0.049625
	minimum = 0.04 (at node 3)
	maximum = 0.058 (at node 5)
Injected packet length average = 1
Accepted packet length average = 1
Total in-flight flits = 17 (17 measured)
latency change    = 0.00899182
throughput change = 0.0780856
Class 0:
Packet latency average = 20.2574
	minimum = 7
	maximum = 46
Network latency average = 20.2574
	minimum = 7
	maximum = 46
Slowest packet = 32194
Flit latency average = 20.3062
	minimum = 7
	maximum = 46
Slowest flit = 32194
Fragmentation average = 0
	minimum = 0
	maximum = 0
Injected packet rate average = 0.050125
	minimum = 0.04 (at node 2)
	maximum = 0.0626667 (at node 15)
Accepted packet rate average = 0.0502083
	minimum = 0.0433333 (at node 3)
	maximum = 0.058 (at node 8)
Injected flit rate average = 0.050125
	minimum = 0.04 (at node 2)
	maximum = 0.0626667 (at node 15)
Accepted flit rate average= 0.0502083
	minimum = 0.0433333 (at node 3)
	maximum = 0.058 (at node 8)
Injected packet length average = 1
Accepted packet length average = 1
Total in-flight flits = 18 (18 measured)
latency change    = 0.0102183
throughput change = 0.0116183
Class 0:
Packet latency average = 20.2776
	minimum = 7
	maximum = 50
Network latency average = 20.2776
	minimum = 7
	maximum = 50
Slowest packet = 33686
Flit latency average = 20.3144
	minimum = 7
	maximum = 50
Slowest flit = 33686
Fragmentation average = 0
	minimum = 0
	maximum = 0
Injected packet rate average = 0.0494687
	minimum = 0.0395 (at node 5)
	maximum = 0.059 (at node 8)
Accepted packet rate average = 0.0495937
	minimum = 0.0435 (at node 3)
	maximum = 0.0545 (at node 4)
Injected flit rate average = 0.0494687
	minimum = 0.0395 (at node 5)
	maximum = 0.059 (at node 8)
Accepted flit rate average= 0.0495937
	minimum = 0.0435 (at node 3)
	maximum = 0.0545 (at node 4)
Injected packet length average = 1
Accepted packet length average = 1
Total in-flight flits = 16 (16 measured)
latency change    = 0.000996989
throughput change = 0.0123924
Class 0:
Packet latency average = 20.1739
	minimum = 7
	maximum = 50
Network latency average = 20.1739
	minimum = 7
	maximum = 50
Slowest packet = 33686
Flit latency average = 20.2049
	minimum = 7
	maximum = 50
Slowest flit = 33686
Fragmentation average = 0
	minimum = 0
	maximum = 0
Injected packet rate average = 0.0486
	minimum = 0.0424 (at node 5)
	maximum = 0.0544 (at node 8)
Accepted packet rate average = 0.0488
	minimum = 0.0412 (at node 3)
	maximum = 0.0536 (at node 9)
Injected flit rate average = 0.0486
	minimum = 0.0424 (at node 5)
	maximum = 0.0544 (at node 8)
Accepted flit rate average= 0.0488
	minimum = 0.0412 (at node 3)
	maximum = 0.0536 (at node 9)
Injected packet length average = 1
Accepted packet length average = 1
Total in-flight flits = 12 (12 measured)
latency change    = 0.00513968
throughput change = 0.0162654
Draining all recorded packets ...
Draining remaining packets ...
Time taken is 4052 cycles
Class 0:
Packet latency average = 20.404
	minimum = 7
	maximum = 57
Network latency average = 20.404
	minimum = 7
	maximum = 57
Slowest packet = 34477
Flit latency average = 20.404
	minimum = 7
	maximum = 57
Slowest flit = 34477
Fragmentation average = 0
	minimum = 0
	maximum = 0
Injected packet rate average = 0.05175
	minimum = 0.042 (at node 2)
	maximum = 0.066 (at node 6)
Accepted packet rate average = 0.0495
	minimum = 0.032 (at node 15)
	maximum = 0.076 (at node 12)
Injected flit rate average = 0.05175
	minimum = 0.042 (at node 2)
	maximum = 0.066 (at node 6)
Accepted flit rate average= 0.0495
	minimum = 0.032 (at node 15)
	maximum = 0.076 (at node 12)
Injected packet length average = 1
Accepted packet length average = 1
Total in-flight flits = 18 (0 measured)
latency change    = 1
throughput change = 1
Class 0:
Packet latency average = 20.1296
	minimum = 7
	maximum = 57
Network latency average = 20.1296
	minimum = 7
	maximum = 57
Slowest packet = 34477
Flit latency average = 20.1296
	minimum = 7
	maximum = 57
Slowest flit = 34477
Fragmentation average = 0
	minimum = 0
	maximum = 0
Injected packet rate average = 0.051875
	minimum = 0.04 (at node 9)
	maximum = 0.063 (at node 5)
Accepted packet rate average = 0.051125
	minimum = 0.043 (at node 2)
	maximum = 0.07 (at node 12)
Injected flit rate average = 0.051875
	minimum = 0.04 (at node 9)
	maximum = 0.063 (at node 5)
Accepted flit rate average= 0.051125
	minimum = 0.043 (at node 2)
	maximum = 0.07 (at node 12)
Injected packet length average = 1
Accepted packet length average = 1
Total in-flight flits = 12 (0 measured)
latency change    = 0.0136345
throughput change = 0.0317848
Class 0:
Packet latency average = 20.2129
	minimum = 7
	maximum = 43
Network latency average = 20.2104
	minimum = 7
	maximum = 43
Slowest packet = 35157
Flit latency average = 20.2104
	minimum = 7
	maximum = 43
Slowest flit = 35157
Fragmentation average = 0
	minimum = 0
	maximum = 0
Injected packet rate average = 0.0515
	minimum = 0.034 (at node 3)
	maximum = 0.076 (at node 7)
Accepted packet rate average = 0.0505
	minimum = 0.034 (at node 6)
	maximum = 0.074 (at node 8)
Injected flit rate average = 0.0515
	minimum = 0.034 (at node 3)
	maximum = 0.076 (at node 7)
Accepted flit rate average= 0.0505
	minimum = 0.034 (at node 6)
	maximum = 0.074 (at node 8)
Injected packet length average = 1
Accepted packet length average = 1
Total in-flight flits = 20 (0 measured)
latency change    = 0.00412049
throughput change = 0.0123762
Warmed up ...Time used is 1500 cycles
Class 0:
Packet latency average = 20.0541
	minimum = 7
	maximum = 45
Network latency average = 20.0541
	minimum = 7
	maximum = 45
Slowest packet = 35460
Flit latency average = 20.1299
	minimum = 7
	maximum = 45
Slowest flit = 35460
Fragmentation average = 0
	minimum = 0
	maximum = 0
Injected packet rate average = 0.050375
	minimum = 0.038 (at node 2)
	maximum = 0.072 (at node 4)
Accepted packet rate average = 0.051
	minimum = 0.032 (at node 2)
	maximum = 0.072 (at node 13)
Injected flit rate average = 0.050375
	minimum = 0.038 (at node 2)
	maximum = 0.072 (at node 4)
Accepted flit rate average= 0.051
	minimum = 0.032 (at node 2)
	maximum = 0.072 (at node 13)
Injected packet length average = 1
Accepted packet length average = 1
Total in-flight flits = 15 (15 measured)
latency change    = 0.00791596
throughput change = 0.00980392
Class 0:
Packet latency average = 20.392
	minimum = 7
	maximum = 51
Network latency average = 20.392
	minimum = 7
	maximum = 51
Slowest packet = 35913
Flit latency average = 20.4216
	minimum = 7
	maximum = 51
Slowest flit = 35913
Fragmentation average = 0
	minimum = 0
	maximum = 0
Injected packet rate average = 0.050625
	minimum = 0.038 (at node 2)
	maximum = 0.061 (at node 1)
Accepted packet rate average = 0.051
	minimum = 0.035 (at node 2)
	maximum = 0.065 (at node 13)
Injected flit rate average = 0.050625
	minimum = 0.038 (at node 2)
	maximum = 0.061 (at node 1)
Accepted flit rate average= 0.051
	minimum = 0.035 (at node 2)
	maximum = 0.065 (at node 13)
Injected packet length average = 1
Accepted packet length average = 1
Total in-flight flits = 14 (14 measured)
latency change    = 0.0165671
throughput change = 0
Class 0:
Packet latency average = 20.3258
	minimum = 7
	maximum = 51
Network latency average = 20.3258
	minimum = 7
	maximum = 51
Slowest packet = 35913
Flit latency average = 20.3468
	minimum = 7
	maximum = 51
Slowest flit = 35913
Fragmentation average = 0
	minimum = 0
	maximum = 0
Injected packet rate average = 0.0506667
	minimum = 0.0426667 (at node 2)
	maximum = 0.0633333 (at node 1)
Accepted packet rate average = 0.0505833
	minimum = 0.0373333 (at node 2)
	maximum = 0.0586667 (at node 15)
Injected flit rate average = 0.0506667
	minimum = 0.0426667 (at node 2)
	maximum = 0.0633333 (at node 1)
Accepted flit rate average= 0.0505833
	minimum = 0.0373333 (at node 2)
	maximum = 0.0586667 (at node 15)
Injected packet length average = 1
Accepted packet length average = 1
Total in-flight flits = 22 (22 measured)
latency change    = 0.00325518
throughput change = 0.00823723
Draining all recorded packets ...
Draining remaining packets ...
Time taken is 3087 cycles
Class 0:
Packet latency average = 20.098
	minimum = 7
	maximum = 46
Network latency average = 20.098
	minimum = 7
	maximum = 46
Slowest packet = 36881
Flit latency average = 20.098
	minimum = 7
	maximum = 46
Slowest flit = 36881
Fragmentation average = 0
	minimum = 0
	maximum = 0
Injected packet rate average = 0.05225
	minimum = 0.038 (at node 10)
	maximum = 0.07 (at node 3)
Accepted packet rate average = 0.04975
	minimum = 0.042 (at node 9)
	maximum = 0.062 (at node 5)
Injected flit rate average = 0.05225
	minimum = 0.038 (at node 10)
	maximum = 0.07 (at node 3)
Accepted flit rate average= 0.04975
	minimum = 0.042 (at node 9)
	maximum = 0.062 (at node 5)
Injected packet length average = 1
Accepted packet length average = 1
Total in-flight flits = 20 (0 measured)
latency change    = 1
throughput change = 1
Class 0:
Packet latency average = 20.1189
	minimum = 7
	maximum = 46
Network latency average = 20.1189
	minimum = 7
	maximum = 46
[...]
Slowest flit = 129816
Fragmentation average = 0
	minimum = 0
	maximum = 0
Injected packet rate average = 0.0477917
	minimum = 0.038 (at node 3)
	maximum = 0.06 (at node 14)
Accepted packet rate average = 0.047875
	minimum = 0.038 (at node 0)
	maximum = 0.058 (at node 14)
Injected flit rate average = 0.0477917
	minimum = 0.038 (at node 3)
	maximum = 0.06 (at node 14)
Accepted flit rate average= 0.047875
	minimum = 0.038 (at node 0)
	maximum = 0.058 (at node 14)
Injected packet length average = 1
Accepted packet length average = 1
Total in-flight flits = 11 (11 measured)
latency change    = 0.00390749
throughput change = 0.00130548
Class 0:
Packet latency average = 20.3883
	minimum = 7
	maximum = 68
Network latency average = 20.3883
	minimum = 7
	maximum = 68
Slowest packet = 129816
Flit latency average = 20.4157
	minimum = 7
	maximum = 68
Slowest flit = 129816
Fragmentation average = 0
	minimum = 0
	maximum = 0
Injected packet rate average = 0.0480625
	minimum = 0.0405 (at node 3)
	maximum = 0.0565 (at node 14)
Accepted packet rate average = 0.0478125
	minimum = 0.038 (at node 0)
	maximum = 0.056 (at node 6)
Injected flit rate average = 0.0480625
	minimum = 0.0405 (at node 3)
	maximum = 0.0565 (at node 14)
Accepted flit rate average= 0.0478125
	minimum = 0.038 (at node 0)
	maximum = 0.056 (at node 6)
Injected packet length average = 1
Accepted packet length average = 1
Total in-flight flits = 21 (21 measured)
latency change    = 0.00237163
throughput change = 0.00130719
Draining all recorded packets ...
Draining remaining packets ...
Time taken is 3566 cycles
Class 0:
Packet latency average = 20.7317
	minimum = 7
	maximum = 79
Network latency average = 20.7317
	minimum = 7
	maximum = 79
Slowest packet = 131255
Flit latency average = 20.7317
	minimum = 7
	maximum = 79
Slowest flit = 131255
Fragmentation average = 0
	minimum = 0
	maximum = 0
Injected packet rate average = 0.05375
	minimum = 0.038 (at node 8)
	maximum = 0.072 (at node 3)
Accepted packet rate average = 0.05125
	minimum = 0.038 (at node 3)
	maximum = 0.072 (at node 6)
Injected flit rate average = 0.05375
	minimum = 0.038 (at node 8)
	maximum = 0.072 (at node 3)
Accepted flit rate average= 0.05125
	minimum = 0.038 (at node 3)
	maximum = 0.072 (at node 6)
Injected packet length average = 1
Accepted packet length average = 1
Total in-flight flits = 20 (0 measured)
latency change    = 1
throughput change = 1
Class 0:
Packet latency average = 20.6948
	minimum = 7
	maximum = 79
Network latency average = 20.6948
	minimum = 7
	maximum = 79
Slowest packet = 131255
Flit latency average = 20.6948
	minimum = 7
	maximum = 79
Slowest flit = 131255
Fragmentation average = 0
	minimum = 0
	maximum = 0
Injected packet rate average = 0.0508125
	minimum = 0.039 (at node 9)
	maximum = 0.06 (at node 2)
Accepted packet rate average = 0.0495625
	minimum = 0.04 (at node 3)
	maximum = 0.061 (at node 6)
Injected flit rate average = 0.0508125
	minimum = 0.039 (at node 9)
	maximum = 0.06 (at node 2)
Accepted flit rate average= 0.0495625
	minimum = 0.04 (at node 3)
	maximum = 0.061 (at node 6)
Injected packet length average = 1
Accepted packet length average = 1
Total in-flight flits = 20 (0 measured)
latency change    = 0.00178197
throughput change = 0.0340479
Class 0:
Packet latency average = 20.3714
	minimum = 7
	maximum = 63
Network latency average = 20.3714
	minimum = 7
	maximum = 63
Slowest packet = 132041
Flit latency average = 20.3714
	minimum = 7
	maximum = 63
Slowest flit = 132041
Fragmentation average = 0
	minimum = 0
	maximum = 0
Injected packet rate average = 0.05175
	minimum = 0.036 (at node 2)
	maximum = 0.066 (at node 1)
Accepted packet rate average = 0.0525
	minimum = 0.03 (at node 6)
	maximum = 0.066 (at node 0)
Injected flit rate average = 0.05175
	minimum = 0.036 (at node 2)
	maximum = 0.066 (at node 1)
Accepted flit rate average= 0.0525
	minimum = 0.03 (at node 6)
	maximum = 0.066 (at node 0)
Injected packet length average = 1
Accepted packet length average = 1
Total in-flight flits = 14 (0 measured)
latency change    = 0.0158752
throughput change = 0.0559524
Warmed up ...Time used is 1500 cycles
Class 0:
Packet latency average = 20.088
	minimum = 7
	maximum = 53
Network latency average = 20.088
	minimum = 7
	maximum = 53
Slowest packet = 132477
Flit latency average = 20.0746
	minimum = 7
	maximum = 53
Slowest flit = 132477
Fragmentation average = 0
	minimum = 0
	maximum = 0
Injected packet rate average = 0.04875
	minimum = 0.034 (at node 9)
	maximum = 0.072 (at node 2)
Accepted packet rate average = 0.048625
	minimum = 0.034 (at node 0)
	maximum = 0.068 (at node 9)
Injected flit rate average = 0.04875
	minimum = 0.034 (at node 9)
	maximum = 0.072 (at node 2)
Accepted flit rate average= 0.048625
	minimum = 0.034 (at node 0)
	maximum = 0.068 (at node 9)
Injected packet length average = 1
Accepted packet length average = 1
Total in-flight flits = 15 (15 measured)
latency change    = 0.0141093
throughput change = 0.0796915
Class 0:
Packet latency average = 20.1376
	minimum = 7
	maximum = 53
Network latency average = 20.1376
	minimum = 7
	maximum = 53
Slowest packet = 132477
Flit latency average = 20.1302
	minimum = 7
	maximum = 53
Slowest flit = 132477
Fragmentation average = 0
	minimum = 0
	maximum = 0
Injected packet rate average = 0.0498125
	minimum = 0.033 (at node 6)
	maximum = 0.059 (at node 2)
Accepted packet rate average = 0.0499375
	minimum = 0.039 (at node 14)
	maximum = 0.058 (at node 10)
Injected flit rate average = 0.0498125
	minimum = 0.033 (at node 6)
	maximum = 0.059 (at node 2)
Accepted flit rate average= 0.0499375
	minimum = 0.039 (at node 14)
	maximum = 0.058 (at node 10)
Injected packet length average = 1
Accepted packet length average = 1
Total in-flight flits = 12 (12 measured)
latency change    = 0.00246204
throughput change = 0.0262829
Class 0:
Packet latency average = 19.9957
	minimum = 7
	maximum = 53
Network latency average = 19.9957
	minimum = 7
	maximum = 53
Slowest packet = 132477
Flit latency average = 19.9924
	minimum = 7
	maximum = 53
Slowest flit = 132477
Fragmentation average = 0
	minimum = 0
	maximum = 0
Injected packet rate average = 0.0490833
	minimum = 0.0346667 (at node 6)
	maximum = 0.0566667 (at node 2)
Accepted packet rate average = 0.0490833
	minimum = 0.0413333 (at node 15)
	maximum = 0.0566667 (at node 10)
Injected flit rate average = 0.0490833
	minimum = 0.0346667 (at node 6)
	maximum = 0.0566667 (at node 2)
Accepted flit rate average= 0.0490833
	minimum = 0.0413333 (at node 15)
	maximum = 0.0566667 (at node 10)
Injected packet length average = 1
Accepted packet length average = 1
Total in-flight flits = 14 (14 measured)
latency change    = 0.00709528
throughput change = 0.0174024
Class 0:
Packet latency average = 19.8249
	minimum = 7
	maximum = 53
Network latency average = 19.8249
	minimum = 7
	maximum = 53
Slowest packet = 132477
Flit latency average = 19.8239
	minimum = 7
	maximum = 53
Slowest flit = 132477
Fragmentation average = 0
	minimum = 0
	maximum = 0
Injected packet rate average = 0.0501875
	minimum = 0.043 (at node 6)
	maximum = 0.0565 (at node 14)
Accepted packet rate average = 0.049875
	minimum = 0.043 (at node 5)
	maximum = 0.0545 (at node 9)
Injected flit rate average = 0.0501875
	minimum = 0.043 (at node 6)
	maximum = 0.0565 (at node 14)
Accepted flit rate average= 0.049875
	minimum = 0.043 (at node 5)
	maximum = 0.0545 (at node 9)
Injected packet length average = 1
Accepted packet length average = 1
Total in-flight flits = 24 (24 measured)
latency change    = 0.00861539
throughput change = 0.015873
Draining all recorded packets ...
Draining remaining packets ...
Time taken is 3574 cycles
Class 0:
Packet latency average = 19.7021
	minimum = 7
	maximum = 61
Network latency average = 19.7021
	minimum = 7
	maximum = 61
Slowest packet = 133957
Flit latency average = 19.7021
	minimum = 7
	maximum = 61
Slowest flit = 133957
Fragmentation average = 0
	minimum = 0
	maximum = 0
Injected packet rate average = 0.056125
	minimum = 0.038 (at node 0)
	maximum = 0.068 (at node 7)
Accepted packet rate average = 0.054125
	minimum = 0.038 (at node 0)
	maximum = 0.072 (at node 6)
Injected flit rate average = 0.056125
	minimum = 0.038 (at node 0)
	maximum = 0.068 (at node 7)
Accepted flit rate average= 0.054125
	minimum = 0.038 (at node 0)
	maximum = 0.072 (at node 6)
Injected packet length average = 1
Accepted packet length average = 1
Total in-flight flits = 16 (0 measured)
latency change    = 1
throughput change = 1
Class 0:
Packet latency average = 20.0285
	minimum = 7
	maximum = 61
Network latency average = 20.0285
	minimum = 7
	maximum = 61
Slowest packet = 133957
Flit latency average = 20.0285
	minimum = 7
	maximum = 61
Slowest flit = 133957
Fragmentation average = 0
	minimum = 0
	maximum = 0
Injected packet rate average = 0.05325
	minimum = 0.046 (at node 4)
	maximum = 0.062 (at node 2)
Accepted packet rate average = 0.052625
	minimum = 0.041 (at node 0)
	maximum = 0.069 (at node 10)
Injected flit rate average = 0.05325
	minimum = 0.046 (at node 4)
	maximum = 0.062 (at node 2)
Accepted flit rate average= 0.052625
	minimum = 0.041 (at node 0)
	maximum = 0.069 (at node 10)
Injected packet length average = 1
Accepted packet length average = 1
Total in-flight flits = 10 (0 measured)
latency change    = 0.016298
throughput change = 0.0285036
Class 0:
Packet latency average = 20.1149
	minimum = 7
	maximum = 53
Network latency average = 20.1149
	minimum = 7
	maximum = 53
Slowest packet = 134719
Flit latency average = 20.1149
	minimum = 7
	maximum = 53
Slowest flit = 134719
Fragmentation average = 0
	minimum = 0
	maximum = 0
Injected packet rate average = 0.05175
	minimum = 0.032 (at node 14)
	maximum = 0.07 (at node 7)
Accepted packet rate average = 0.051125
	minimum = 0.038 (at node 2)
	maximum = 0.064 (at node 5)
Injected flit rate average = 0.05175
	minimum = 0.032 (at node 14)
	maximum = 0.07 (at node 7)
Accepted flit rate average= 0.051125
	minimum = 0.038 (at node 2)
	maximum = 0.064 (at node 5)
Injected packet length average = 1
Accepted packet length average = 1
Total in-flight flits = 15 (0 measured)
latency change    = 0.00429586
throughput change = 0.0293399
Warmed up ...Time used is 1500 cycles
Class 0:
Packet latency average = 20.9386
	minimum = 7
	maximum = 54
Network latency average = 20.9386
	minimum = 7
	maximum = 54
Slowest packet = 135405
Flit latency average = 20.867
	minimum = 7
	maximum = 54
Slowest flit = 135405
Fragmentation average = 0
	minimum = 0
	maximum = 0
Injected packet rate average = 0.05075
	minimum = 0.034 (at node 1)
	maximum = 0.07 (at node 5)
Accepted packet rate average = 0.05075
	minimum = 0.036 (at node 2)
	maximum = 0.07 (at node 5)
Injected flit rate average = 0.05075
	minimum = 0.034 (at node 1)
	maximum = 0.07 (at node 5)
Accepted flit rate average= 0.05075
	minimum = 0.036 (at node 2)
	maximum = 0.07 (at node 5)
Injected packet length average = 1
Accepted packet length average = 1
Total in-flight flits = 15 (15 measured)
latency change    = 0.039339
throughput change = 0.00738916
Class 0:
Packet latency average = 20.5223
	minimum = 7
	maximum = 55
Network latency average = 20.5223
	minimum = 7
	maximum = 55
Slowest packet = 135680
Flit latency average = 20.4937
	minimum = 7
	maximum = 55
Slowest flit = 135680
Fragmentation average = 0
	minimum = 0
	maximum = 0
Injected packet rate average = 0.049875
	minimum = 0.037 (at node 1)
	maximum = 0.057 (at node 6)
Accepted packet rate average = 0.049875
	minimum = 0.032 (at node 14)
	maximum = 0.065 (at node 15)
Injected flit rate average = 0.049875
	minimum = 0.037 (at node 1)
	maximum = 0.057 (at node 6)
Accepted flit rate average= 0.049875
	minimum = 0.032 (at node 14)
	maximum = 0.065 (at node 15)
Injected packet length average = 1
Accepted packet length average = 1
Total in-flight flits = 15 (15 measured)
latency change    = 0.0202837
throughput change = 0.0175439
Class 0:
Packet latency average = 20.4303
	minimum = 7
	maximum = 55
Network latency average = 20.4303
	minimum = 7
	maximum = 55
Slowest packet = 135680
Flit latency average = 20.4129
	minimum = 7
	maximum = 55
Slowest flit = 135680
Fragmentation average = 0
	minimum = 0
	maximum = 0
Injected packet rate average = 0.0513333
	minimum = 0.0406667 (at node 1)
	maximum = 0.06 (at node 5)
Accepted packet rate average = 0.0511667
	minimum = 0.0373333 (at node 1)
	maximum = 0.064 (at node 15)
Injected flit rate average = 0.0513333
	minimum = 0.0406667 (at node 1)
	maximum = 0.06 (at node 5)
Accepted flit rate average= 0.0511667
	minimum = 0.0373333 (at node 1)
	maximum = 0.064 (at node 15)
Injected packet length average = 1
Accepted packet length average = 1
Total in-flight flits = 19 (19 measured)
latency change    = 0.00450369
throughput change = 0.0252443
Draining all recorded packets ...
Draining remaining packets ...
Time taken is 3063 cycles
Class 0:
Packet latency average = 20.4557
	minimum = 7
	maximum = 46
Network latency average = 20.4557
	minimum = 7
	maximum = 46
Slowest packet = 136556
Flit latency average = 20.4557
	minimum = 7
	maximum = 46
Slowest flit = 136556
Fragmentation average = 0
	minimum = 0
	maximum = 0
Injected packet rate average = 0.05025
	minimum = 0.034 (at node 15)
	maximum = 0.068 (at node 2)
Accepted packet rate average = 0.048
	minimum = 0.032 (at node 8)
	maximum = 0.066 (at node 10)
Injected flit rate average = 0.05025
	minimum = 0.034 (at node 15)
	maximum = 0.068 (at node 2)
Accepted flit rate average= 0.048
	minimum = 0.032 (at node 8)
	maximum = 0.066 (at node 10)
Injected packet length average = 1
Accepted packet length average = 1
Total in-flight flits = 18 (0 measured)
latency change    = 1
throughput change = 1
Class 0:
Packet latency average = 20.703
	minimum = 7
	maximum = 52
Network latency average = 20.703
	minimum = 7
	maximum = 52
Slowest packet = 136924
Flit latency average = 20.703
	minimum = 7
	maximum = 52
Slowest flit = 136924
Fragmentation average = 0
	minimum = 0
	maximum = 0
Injected packet rate average = 0.0485
	minimum = 0.038 (at node 15)
	maximum = 0.059 (at node 2)
Accepted packet rate average = 0.0475625
	minimum = 0.042 (at node 4)
	maximum = 0.057 (at node 3)
Injected flit rate average = 0.0485
	minimum = 0.038 (at node 15)
	maximum = 0.059 (at node 2)
Accepted flit rate average= 0.0475625
	minimum = 0.042 (at node 4)
	maximum = 0.057 (at node 3)
Injected packet length average = 1
Accepted packet length average = 1
Total in-flight flits = 15 (0 measured)
latency change    = 0.0119448
throughput change = 0.00919842
Class 0:
Packet latency average = 21.0911
	minimum = 7
	maximum = 50
Network latency average = 21.0911
	minimum = 7
	maximum = 50
Slowest packet = 137248
Flit latency average = 21.0911
	minimum = 7
	maximum = 50
Slowest flit = 137248
Fragmentation average = 0
	minimum = 0
	maximum = 0
Injected packet rate average = 0.047625
	minimum = 0.034 (at node 9)
	maximum = 0.062 (at node 10)
Accepted packet rate average = 0.048
	minimum = 0.034 (at node 6)
	maximum = 0.064 (at node 0)
Injected flit rate average = 0.047625
	minimum = 0.034 (at node 9)
	maximum = 0.062 (at node 10)
Accepted flit rate average= 0.048
	minimum = 0.034 (at node 6)
	maximum = 0.064 (at node 0)
Injected packet length average = 1
Accepted packet length average = 1
Total in-flight flits = 12 (0 measured)
latency change    = 0.0184022
throughput change = 0.00911458
Warmed up ...Time used is 1500 cycles
Class 0:
Packet latency average = 19.8156
	minimum = 7
	maximum = 46
Network latency average = 19.8156
	minimum = 7
	maximum = 46
Slowest packet = 137830
Flit latency average = 19.8992
	minimum = 7
	maximum = 46
Slowest flit = 137830
Fragmentation average = 0
	minimum = 0
	maximum = 0
Injected packet rate average = 0.0515
	minimum = 0.034 (at node 0)
	maximum = 0.068 (at node 7)
Accepted packet rate average = 0.049625
	minimum = 0.034 (at node 8)
	maximum = 0.068 (at node 9)
Injected flit rate average = 0.0515
	minimum = 0.034 (at node 0)
	maximum = 0.068 (at node 7)
Accepted flit rate average= 0.049625
	minimum = 0.034 (at node 8)
	maximum = 0.068 (at node 9)
Injected packet length average = 1
Accepted packet length average = 1
Total in-flight flits = 27 (27 measured)
latency change    = 0.0643716
throughput change = 0.0327456
Class 0:
Packet latency average = 20.4034
	minimum = 7
	maximum = 64
Network latency average = 20.4034
	minimum = 7
	maximum = 64
Slowest packet = 137908
Flit latency average = 20.4352
	minimum = 7
	maximum = 64
Slowest flit = 137908
Fragmentation average = 0
	minimum = 0
	maximum = 0
Injected packet rate average = 0.051375
	minimum = 0.034 (at node 9)
	maximum = 0.066 (at node 13)
Accepted packet rate average = 0.0515625
	minimum = 0.035 (at node 8)
	maximum = 0.067 (at node 9)
Injected flit rate average = 0.051375
	minimum = 0.034 (at node 9)
	maximum = 0.066 (at node 13)
Accepted flit rate average= 0.0515625
	minimum = 0.035 (at node 8)
	maximum = 0.067 (at node 9)
Injected packet length average = 1
Accepted packet length average = 1
Total in-flight flits = 9 (9 measured)
latency change    = 0.0288118
throughput change = 0.0375758
Class 0:
Packet latency average = 20.5155
	minimum = 7
	maximum = 64
Network latency average = 20.5155
	minimum = 7
	maximum = 64
Slowest packet = 137908
Flit latency average = 20.536
	minimum = 7
	maximum = 64
Slowest flit = 137908
Fragmentation average = 0
	minimum = 0
	maximum = 0
Injected packet rate average = 0.0504583
	minimum = 0.0413333 (at node 0)
	maximum = 0.0593333 (at node 10)
Accepted packet rate average = 0.0502917
	minimum = 0.0386667 (at node 8)
	maximum = 0.0586667 (at node 9)
Injected flit rate average = 0.0504583
	minimum = 0.0413333 (at node 0)
	maximum = 0.0593333 (at node 10)
Accepted flit rate average= 0.0502917
	minimum = 0.0386667 (at node 8)
	maximum = 0.0586667 (at node 9)
Injected packet length average = 1
Accepted packet length average = 1
Total in-flight flits = 16 (16 measured)
latency change    = 0.0054611
throughput change = 0.0252693
Class 0:
Packet latency average = 20.5141
	minimum = 7
	maximum = 64
Network latency average = 20.5141
	minimum = 7
	maximum = 64
Slowest packet = 137908
Flit latency average = 20.5294
	minimum = 7
	maximum = 64
Slowest flit = 137908
Fragmentation average = 0
	minimum = 0
	maximum = 0
Injected packet rate average = 0.0504687
	minimum = 0.0425 (at node 0)
	maximum = 0.0575 (at node 8)
Accepted packet rate average = 0.0504062
	minimum = 0.043 (at node 8)
	maximum = 0.0615 (at node 9)
Injected flit rate average = 0.0504687
	minimum = 0.0425 (at node 0)
	maximum = 0.0575 (at node 8)
Accepted flit rate average= 0.0504062
	minimum = 0.043 (at node 8)
	maximum = 0.0615 (at node 9)
Injected packet length average = 1
Accepted packet length average = 1
Total in-flight flits = 14 (14 measured)
latency change    = 6.95843e-05
throughput change = 0.0022732
Draining all recorded packets ...
Draining remaining packets ...
Time taken is 3558 cycles
====== Overall Traffic Statistics ======
====== Traffic class 0 ======
Packet latency average = 20.3279 (50 samples)
	minimum = 7 (50 samples)
	maximum = 58.76 (50 samples)
Network latency average = 20.3278 (50 samples)
	minimum = 7 (50 samples)
	maximum = 58.76 (50 samples)
Flit latency average = 20.3638 (50 samples)
	minimum = 7 (50 samples)
	maximum = 59.34 (50 samples)
Fragmentation average = 0 (50 samples)
	minimum = 0 (50 samples)
	maximum = 0 (50 samples)
Injected packet rate average = 0.0501506 (50 samples)
	minimum = 0.041706 (50 samples)
	maximum = 0.0591753 (50 samples)
Accepted packet rate average = 0.0501437 (50 samples)
	minimum = 0.0410307 (50 samples)
	maximum = 0.059982 (50 samples)
Injected flit rate average = 0.0501506 (50 samples)
	minimum = 0.041706 (50 samples)
	maximum = 0.0591753 (50 samples)
Accepted flit rate average = 0.0501437 (50 samples)
	minimum = 0.0410307 (50 samples)
	maximum = 0.059982 (50 samples)
Injected packet size average = 1 (50 samples)
Accepted packet size average = 1 (50 samples)
Hops average = 3.51979 (50 samples)
Total run time 1.89107
