BEGIN Configuration File: /tmp/tmp_8dkhoua.cfg
topology = mesh;
k = 4;
n = 2;
routing_function = dor;
num_vcs = 4;
vc_buf_size = 4;
wait_for_tail_credit = 1;
vc_allocator = islip;
sw_allocator = islip;
alloc_iters = 1;
credit_delay = 2;
routing_delay = 1;
vc_alloc_delay = 1;
sw_alloc_delay = 1;
input_speedup = 2;
output_speedup = 1;
internal_speedup = 1.0;
traffic = transpose;
packet_size = 1;
sim_type = latency;
injection_rate = 0.05;
warmup_periods = 3;
sample_period = 500;
sim_count = 50;
seed = 2;
link_failures = 4;
fail_seed = 303;

END Configuration File: /tmp/tmp_8dkhoua.cfg
failure at node 9, channel 2 (1/4)
failure at node 15, channel 3 (2/4)
failure at node 2, channel 2 (3/4)
failure at node 7, channel 3 (4/4)
Class 0:
Packet latency average = 18.7401
	minimum = 7
	maximum = 39
Network latency average = 18.7401
	minimum = 7
	maximum = 39
Slowest packet = 223
Flit latency average = 18.7401
	minimum = 7
	maximum = 39
Slowest flit = 223
Fragmentation average = 0
	minimum = 0
	maximum = 0
Injected packet rate average = 0.048875
	minimum = 0.03 (at node 5)
	maximum = 0.068 (at node 10)
Accepted packet rate average = 0.047125
	minimum = 0.03 (at node 5)
	maximum = 0.068 (at node 10)
Injected flit rate average = 0.048875
	minimum = 0.03 (at node 5)
	maximum = 0.068 (at node 10)
Accepted flit rate average= 0.047125
	minimum = 0.03 (at node 5)
	maximum = 0.068 (at node 10)
Injected packet length average = 1
Accepted packet length average = 1
Total in-flight flits = 14 (0 measured)
latency change    = 1
throughput change = 1
Class 0:
Packet latency average = 18.8886
	minimum = 7
	maximum = 43
Network latency average = 18.8886
	minimum = 7
	maximum = 43
Slowest packet = 527
Flit latency average = 18.8886
	minimum = 7
	maximum = 43
Slowest flit = 527
Fragmentation average = 0
	minimum = 0
	maximum = 0
Injected packet rate average = 0.04975
	minimum = 0.035 (at node 8)
	maximum = 0.064 (at node 10)
Accepted packet rate average = 0.04825
	minimum = 0.034 (at node 2)
	maximum = 0.064 (at node 10)
Injected flit rate average = 0.04975
	minimum = 0.035 (at node 8)
	maximum = 0.064 (at node 10)
Accepted flit rate average= 0.04825
	minimum = 0.034 (at node 2)
	maximum = 0.064 (at node 10)
Injected packet length average = 1
Accepted packet length average = 1
Total in-flight flits = 24 (0 measured)
latency change    = 0.00786442
throughput change = 0.0233161
Class 0:
Packet latency average = 19.6531
	minimum = 7
	maximum = 40
Network latency average = 19.6531
	minimum = 7
	maximum = 40
Slowest packet = 763
Flit latency average = 19.6531
	minimum = 7
	maximum = 40
Slowest flit = 763
Fragmentation average = 0
	minimum = 0
	maximum = 0
Injected packet rate average = 0.04475
	minimum = 0.026 (at node 1)
	maximum = 0.06 (at node 10)
Accepted packet rate average = 0.046125
	minimum = 0.024 (at node 4)
	maximum = 0.062 (at node 12)
Injected flit rate average = 0.04475
	minimum = 0.026 (at node 1)
	maximum = 0.06 (at node 10)
Accepted flit rate average= 0.046125
	minimum = 0.024 (at node 4)
	maximum = 0.062 (at node 12)
Injected packet length average = 1
Accepted packet length average = 1
Total in-flight flits = 13 (0 measured)
latency change    = 0.0389005
throughput change = 0.0460705
Warmed up ...Time used is 1500 cycles
Class 0:
Packet latency average = 19.7788
	minimum = 7
	maximum = 38
Network latency average = 19.7788
	minimum = 7
	maximum = 38
Slowest packet = 1174
Flit latency average = 19.9068
	minimum = 7
	maximum = 38
Slowest flit = 1174
Fragmentation average = 0
	minimum = 0
	maximum = 0
Injected packet rate average = 0.05375
	minimum = 0.038 (at node 15)
	maximum = 0.08 (at node 10)
Accepted packet rate average = 0.053625
	minimum = 0.038 (at node 15)
	maximum = 0.08 (at node 10)
Injected flit rate average = 0.05375
	minimum = 0.038 (at node 15)
	maximum = 0.08 (at node 10)
Accepted flit rate average= 0.053625
	minimum = 0.038 (at node 15)
	maximum = 0.08 (at node 10)
Injected packet length average = 1
Accepted packet length average = 1
Total in-flight flits = 14 (14 measured)
latency change    = 0.00635677
throughput change = 0.13986
Class 0:
Packet latency average = 19.8268
	minimum = 7
	maximum = 40
Network latency average = 19.8268
	minimum = 7
	maximum = 40
Slowest packet = 1897
Flit latency average = 19.8943
	minimum = 7
	maximum = 40
Slowest flit = 1897
Fragmentation average = 0
	minimum = 0
	maximum = 0
Injected packet rate average = 0.050125
	minimum = 0.032 (at node 15)
	maximum = 0.07 (at node 10)
Accepted packet rate average = 0.05025
	minimum = 0.032 (at node 15)
	maximum = 0.07 (at node 10)
Injected flit rate average = 0.050125
	minimum = 0.032 (at node 15)
	maximum = 0.07 (at node 10)
Accepted flit rate average= 0.05025
	minimum = 0.032 (at node 15)
	maximum = 0.07 (at node 10)
Injected packet length average = 1
Accepted packet length average = 1
Total in-flight flits = 11 (11 measured)
latency change    = 0.00241871
throughput change = 0.0671642
Class 0:
Packet latency average = 19.7696
	minimum = 7
	maximum = 40
Network latency average = 19.7696
	minimum = 7
	maximum = 40
Slowest packet = 1897
Flit latency average = 19.8158
	minimum = 7
	maximum = 40
Slowest flit = 1897
Fragmentation average = 0
	minimum = 0
	maximum = 0
Injected packet rate average = 0.049625
	minimum = 0.0393333 (at node 15)
	maximum = 0.066 (at node 10)
Accepted packet rate average = 0.0495417
	minimum = 0.0386667 (at node 15)
	maximum = 0.0646667 (at node 10)
Injected flit rate average = 0.049625
	minimum = 0.0393333 (at node 15)
	maximum = 0.066 (at node 10)
Accepted flit rate average= 0.0495417
	minimum = 0.0386667 (at node 15)
	maximum = 0.0646667 (at node 10)
Injected packet length average = 1
Accepted packet length average = 1
Total in-flight flits = 15 (15 measured)
latency change    = 0.00289555
throughput change = 0.0142977
Class 0:
Packet latency average = 19.423
	minimum = 7
	maximum = 41
Network latency average = 19.423
	minimum = 7
	maximum = 41
Slowest packet = 2363
Flit latency average = 19.4598
	minimum = 7
	maximum = 41
Slowest flit = 2363
Fragmentation average = 0
	minimum = 0
	maximum = 0
Injected packet rate average = 0.0506562
	minimum = 0.0425 (at node 1)
	maximum = 0.0695 (at node 10)
Accepted packet rate average = 0.0505
	minimum = 0.0425 (at node 15)
	maximum = 0.0695 (at node 10)
Injected flit rate average = 0.0506562
	minimum = 0.0425 (at node 1)
	maximum = 0.0695 (at node 10)
Accepted flit rate average= 0.0505
	minimum = 0.0425 (at node 15)
	maximum = 0.0695 (at node 10)
Injected packet length average = 1
Accepted packet length average = 1
Total in-flight flits = 18 (18 measured)
latency change    = 0.0178449
throughput change = 0.0189769
Class 0:
Packet latency average = 19.5691
	minimum = 7
	maximum = 43
Network latency average = 19.5691
	minimum = 7
	maximum = 43
Slowest packet = 3148
Flit latency average = 19.5973
	minimum = 7
	maximum = 43
Slowest flit = 3148
Fragmentation average = 0
	minimum = 0
	maximum = 0
Injected packet rate average = 0.051225
	minimum = 0.0404 (at node 1)
	maximum = 0.0648 (at node 10)
Accepted packet rate average = 0.05115
	minimum = 0.0408 (at node 4)
	maximum = 0.0648 (at node 10)
Injected flit rate average = 0.051225
	minimum = 0.0404 (at node 1)
	maximum = 0.0648 (at node 10)
Accepted flit rate average= 0.05115
	minimum = 0.0408 (at node 4)
	maximum = 0.0648 (at node 10)
Injected packet length average = 1
Accepted packet length average = 1
Total in-flight flits = 16 (16 measured)
latency change    = 0.00746854
throughput change = 0.0127077
Draining all recorded packets ...
Draining remaining packets ...
Time taken is 4060 cycles
Class 0:
Packet latency average = 19.2663
	minimum = 7
	maximum = 39
Network latency average = 19.2663
	minimum = 7
	maximum = 39
Slowest packet = 3267
Flit latency average = 19.2663
	minimum = 7
	maximum = 39
Slowest flit = 3267
Fragmentation average = 0
	minimum = 0
	maximum = 0
Injected packet rate average = 0.050875
	minimum = 0.038 (at node 4)
	maximum = 0.062 (at node 0)
Accepted packet rate average = 0.04975
	minimum = 0.036 (at node 1)
	maximum = 0.062 (at node 0)
Injected flit rate average = 0.050875
	minimum = 0.038 (at node 4)
	maximum = 0.062 (at node 0)
Accepted flit rate average= 0.04975
	minimum = 0.036 (at node 1)
	maximum = 0.062 (at node 0)
Injected packet length average = 1
Accepted packet length average = 1
Total in-flight flits = 9 (0 measured)
latency change    = 1
throughput change = 1
Class 0:
Packet latency average = 19.8211
	minimum = 7
	maximum = 39
Network latency average = 19.8211
	minimum = 7
	maximum = 39
Slowest packet = 3267
Flit latency average = 19.8211
	minimum = 7
	maximum = 39
Slowest flit = 3267
Fragmentation average = 0
	minimum = 0
	maximum = 0
Injected packet rate average = 0.052
	minimum = 0.044 (at node 4)
	maximum = 0.063 (at node 8)
Accepted packet rate average = 0.051
	minimum = 0.043 (at node 1)
	maximum = 0.06 (at node 2)
Injected flit rate average = 0.052
	minimum = 0.044 (at node 4)
	maximum = 0.063 (at node 8)
Accepted flit rate average= 0.051
	minimum = 0.043 (at node 1)
	maximum = 0.06 (at node 2)
Injected packet length average = 1
Accepted packet length average = 1
Total in-flight flits = 16 (0 measured)
latency change    = 0.0279877
throughput change = 0.0245098
Class 0:
Packet latency average = 19.0183
	minimum = 7
	maximum = 38
Network latency average = 19.0183
	minimum = 7
	maximum = 38
Slowest packet = 4074
Flit latency average = 19.0183
	minimum = 7
	maximum = 38
Slowest flit = 4074
Fragmentation average = 0
	minimum = 0
	maximum = 0
Injected packet rate average = 0.055
	minimum = 0.032 (at node 11)
	maximum = 0.072 (at node 4)
Accepted packet rate average = 0.0545
	minimum = 0.028 (at node 14)
	maximum = 0.072 (at node 1)
Injected flit rate average = 0.055
	minimum = 0.032 (at node 11)
	maximum = 0.072 (at node 4)
Accepted flit rate average= 0.0545
	minimum = 0.028 (at node 14)
	maximum = 0.072 (at node 1)
Injected packet length average = 1
Accepted packet length average = 1
Total in-flight flits = 20 (0 measured)
latency change    = 0.0422082
throughput change = 0.0642202
Warmed up ...Time used is 1500 cycles
Class 0:
Packet latency average = 19.3158
	minimum = 7
	maximum = 44
Network latency average = 19.3158
	minimum = 7
	maximum = 44
Slowest packet = 4519
Flit latency average = 19.5643
	minimum = 7
	maximum = 44
Slowest flit = 4519
Fragmentation average = 0
	minimum = 0
	maximum = 0
Injected packet rate average = 0.047625
	minimum = 0.036 (at node 2)
	maximum = 0.066 (at node 13)
Accepted packet rate average = 0.047625
	minimum = 0.034 (at node 8)
	maximum = 0.064 (at node 7)
Injected flit rate average = 0.047625
	minimum = 0.036 (at node 2)
	maximum = 0.066 (at node 13)
Accepted flit rate average= 0.047625
	minimum = 0.034 (at node 8)
	maximum = 0.064 (at node 7)
Injected packet length average = 1
Accepted packet length average = 1
Total in-flight flits = 20 (20 measured)
latency change    = 0.0153988
throughput change = 0.144357
Class 0:
Packet latency average = 19.3572
	minimum = 7
	maximum = 44
Network latency average = 19.3497
	minimum = 7
	maximum = 44
Slowest packet = 4519
Flit latency average = 19.465
	minimum = 7
	maximum = 44
Slowest flit = 4519
Fragmentation average = 0
	minimum = 0
	maximum = 0
Injected packet rate average = 0.0504375
	minimum = 0.042 (at node 12)
	maximum = 0.062 (at node 5)
Accepted packet rate average = 0.0509375
	minimum = 0.042 (at node 8)
	maximum = 0.063 (at node 5)
Injected flit rate average = 0.0504375
	minimum = 0.042 (at node 12)
	maximum = 0.062 (at node 5)
Accepted flit rate average= 0.0509375
	minimum = 0.042 (at node 8)
	maximum = 0.063 (at node 5)
Injected packet length average = 1
Accepted packet length average = 1
Total in-flight flits = 12 (12 measured)
latency change    = 0.00214097
throughput change = 0.0650307
Class 0:
Packet latency average = 19.649
	minimum = 7
	maximum = 44
Network latency average = 19.6439
	minimum = 7
	maximum = 44
Slowest packet = 4519
Flit latency average = 19.7179
	minimum = 7
	maximum = 44
Slowest flit = 4519
Fragmentation average = 0
	minimum = 0
	maximum = 0
Injected packet rate average = 0.0494583
	minimum = 0.0426667 (at node 15)
	maximum = 0.056 (at node 3)
Accepted packet rate average = 0.049625
	minimum = 0.0426667 (at node 8)
	maximum = 0.0573333 (at node 12)
Injected flit rate average = 0.0494583
	minimum = 0.0426667 (at node 15)
	maximum = 0.056 (at node 3)
Accepted flit rate average= 0.049625
	minimum = 0.0426667 (at node 8)
	maximum = 0.0573333 (at node 12)
Injected packet length average = 1
Accepted packet length average = 1
Total in-flight flits = 16 (16 measured)
latency change    = 0.0148499
throughput change = 0.0264484
Class 0:
Packet latency average = 19.6198
	minimum = 7
	maximum = 44
Network latency average = 19.616
	minimum = 7
	maximum = 44
Slowest packet = 4519
Flit latency average = 19.6717
	minimum = 7
	maximum = 44
Slowest flit = 4519
Fragmentation average = 0
	minimum = 0
	maximum = 0
Injected packet rate average = 0.049625
	minimum = 0.0435 (at node 11)
	maximum = 0.06 (at node 5)
Accepted packet rate average = 0.0497812
	minimum = 0.0435 (at node 8)
	maximum = 0.06 (at node 5)
Injected flit rate average = 0.049625
	minimum = 0.0435 (at node 11)
	maximum = 0.06 (at node 5)
Accepted flit rate average= 0.0497812
	minimum = 0.0435 (at node 8)
	maximum = 0.06 (at node 5)
Injected packet length average = 1
Accepted packet length average = 1
Total in-flight flits = 15 (15 measured)
latency change    = 0.00148743
throughput change = 0.00313873
Class 0:
Packet latency average = 19.5475
	minimum = 7
	maximum = 44
Network latency average = 19.5444
	minimum = 7
	maximum = 44
Slowest packet = 4519
Flit latency average = 19.5897
	minimum = 7
	maximum = 44
Slowest flit = 4519
Fragmentation average = 0
	minimum = 0
	maximum = 0
Injected packet rate average = 0.049725
	minimum = 0.0444 (at node 9)
	maximum = 0.0556 (at node 5)
Accepted packet rate average = 0.049725
	minimum = 0.0428 (at node 8)
	maximum = 0.056 (at node 5)
Injected flit rate average = 0.049725
	minimum = 0.0444 (at node 9)
	maximum = 0.0556 (at node 5)
Accepted flit rate average= 0.049725
	minimum = 0.0428 (at node 8)
	maximum = 0.056 (at node 5)
Injected packet length average = 1
Accepted packet length average = 1
Total in-flight flits = 20 (20 measured)
latency change    = 0.00370118
throughput change = 0.00113122
Draining all recorded packets ...
Draining remaining packets ...
Time taken is 4063 cycles
Class 0:
Packet latency average = 18.9974
	minimum = 7
	maximum = 40
Network latency average = 18.9974
	minimum = 7
	maximum = 40
Slowest packet = 6711
Flit latency average = 18.9974
	minimum = 7
	maximum = 40
Slowest flit = 6711
Fragmentation average = 0
	minimum = 0
	maximum = 0
Injected packet rate average = 0.049625
	minimum = 0.038 (at node 5)
	maximum = 0.074 (at node 0)
Accepted packet rate average = 0.047875
	minimum = 0.036 (at node 5)
	maximum = 0.074 (at node 0)
Injected flit rate average = 0.049625
	minimum = 0.038 (at node 5)
	maximum = 0.074 (at node 0)
Accepted flit rate average= 0.047875
	minimum = 0.036 (at node 5)
	maximum = 0.074 (at node 0)
Injected packet length average = 1
Accepted packet length average = 1
Total in-flight flits = 14 (0 measured)
latency change    = 1
throughput change = 1
Class 0:
Packet latency average = 19.7604
	minimum = 7
	maximum = 41
Network latency average = 19.7604
	minimum = 7
	maximum = 41
Slowest packet = 7256
Flit latency average = 19.7604
	minimum = 7
	maximum = 41
Slowest flit = 7256
Fragmentation average = 0
	minimum = 0
	maximum = 0
Injected packet rate average = 0.0505
	minimum = 0.038 (at node 5)
	maximum = 0.066 (at node 15)
Accepted packet rate average = 0.0495625
	minimum = 0.038 (at node 5)
	maximum = 0.066 (at node 15)
Injected flit rate average = 0.0505
	minimum = 0.038 (at node 5)
	maximum = 0.066 (at node 15)
Accepted flit rate average= 0.0495625
	minimum = 0.038 (at node 5)
	maximum = 0.066 (at node 15)
Injected packet length average = 1
Accepted packet length average = 1
Total in-flight flits = 15 (0 measured)
latency change    = 0.0386133
throughput change = 0.0340479
Class 0:
Packet latency average = 19.4911
	minimum = 7
	maximum = 38
Network latency average = 19.4911
	minimum = 7
	maximum = 38
Slowest packet = 7357
Flit latency average = 19.4911
	minimum = 7
	maximum = 38
Slowest flit = 7357
Fragmentation average = 0
	minimum = 0
	maximum = 0
Injected packet rate average = 0.0495
	minimum = 0.04 (at node 2)
	maximum = 0.07 (at node 8)
Accepted packet rate average = 0.049375
	minimum = 0.04 (at node 7)
	maximum = 0.066 (at node 2)
Injected flit rate average = 0.0495
	minimum = 0.04 (at node 2)
	maximum = 0.07 (at node 8)
Accepted flit rate average= 0.049375
	minimum = 0.04 (at node 7)
	maximum = 0.066 (at node 2)
Injected packet length average = 1
Accepted packet length average = 1
Total in-flight flits = 16 (0 measured)
latency change    = 0.0138147
throughput change = 0.00379747
Warmed up ...Time used is 1500 cycles
Class 0:
Packet latency average = 18.8677
	minimum = 7
	maximum = 41
Network latency average = 18.8677
	minimum = 7
	maximum = 41
Slowest packet = 7789
Flit latency average = 19.088
	minimum = 7
	maximum = 41
Slowest flit = 7789
Fragmentation average = 0
	minimum = 0
	maximum = 0
Injected packet rate average = 0.0505
	minimum = 0.04 (at node 1)
	maximum = 0.072 (at node 14)
Accepted packet rate average = 0.051125
	minimum = 0.036 (at node 14)
	maximum = 0.072 (at node 11)
Injected flit rate average = 0.0505
	minimum = 0.04 (at node 1)
	maximum = 0.072 (at node 14)
Accepted flit rate average= 0.051125
	minimum = 0.036 (at node 14)
	maximum = 0.072 (at node 11)
Injected packet length average = 1
Accepted packet length average = 1
Total in-flight flits = 11 (11 measured)
latency change    = 0.0330435
throughput change = 0.0342298
Class 0:
Packet latency average = 18.9532
	minimum = 7
	maximum = 41
Network latency average = 18.9532
	minimum = 7
	maximum = 41
Slowest packet = 7789
Flit latency average = 19.0604
	minimum = 7
	maximum = 41
Slowest flit = 7789
Fragmentation average = 0
	minimum = 0
	maximum = 0
Injected packet rate average = 0.0523125
	minimum = 0.037 (at node 5)
	maximum = 0.067 (at node 0)
Accepted packet rate average = 0.05175
	minimum = 0.038 (at node 5)
	maximum = 0.067 (at node 11)
Injected flit rate average = 0.0523125
	minimum = 0.037 (at node 5)
	maximum = 0.067 (at node 0)
Accepted flit rate average= 0.05175
	minimum = 0.038 (at node 5)
	maximum = 0.067 (at node 11)
Injected packet length average = 1
Accepted packet length average = 1
Total in-flight flits = 25 (25 measured)
latency change    = 0.00451203
throughput change = 0.0120773
Class 0:
Packet latency average = 19.2982
	minimum = 7
	maximum = 42
Network latency average = 19.2982
	minimum = 7
	maximum = 42
Slowest packet = 8772
Flit latency average = 19.3648
	minimum = 7
	maximum = 42
Slowest flit = 8772
Fragmentation average = 0
	minimum = 0
	maximum = 0
Injected packet rate average = 0.0519583
	minimum = 0.0413333 (at node 5)
	maximum = 0.0606667 (at node 10)
Accepted packet rate average = 0.0520833
	minimum = 0.0413333 (at node 5)
	maximum = 0.0613333 (at node 10)
Injected flit rate average = 0.0519583
	minimum = 0.0413333 (at node 5)
	maximum = 0.0606667 (at node 10)
Accepted flit rate average= 0.0520833
	minimum = 0.0413333 (at node 5)
	maximum = 0.0613333 (at node 10)
Injected packet length average = 1
Accepted packet length average = 1
Total in-flight flits = 13 (13 measured)
latency change    = 0.0178781
throughput change = 0.0064
Draining all recorded packets ...
Draining remaining packets ...
Time taken is 3065 cycles
Class 0:
Packet latency average = 19.5953
	minimum = 7
	maximum = 40
Network latency average = 19.5953
	minimum = 7
	maximum = 40
Slowest packet = 8983
Flit latency average = 19.5953
	minimum = 7
	maximum = 40
Slowest flit = 8983
Fragmentation average = 0
	minimum = 0
	maximum = 0
Injected packet rate average = 0.04925
	minimum = 0.04 (at node 10)
	maximum = 0.058 (at node 13)
Accepted packet rate average = 0.047875
	minimum = 0.04 (at node 2)
	maximum = 0.058 (at node 7)
Injected flit rate average = 0.04925
	minimum = 0.04 (at node 10)
	maximum = 0.058 (at node 13)
Accepted flit rate average= 0.047875
	minimum = 0.04 (at node 2)
	maximum = 0.058 (at node 7)
Injected packet length average = 1
Accepted packet length average = 1
Total in-flight flits = 11 (0 measured)
latency change    = 1
throughput change = 1
Class 0:
Packet latency average = 19.3887
	minimum = 7
	maximum = 40
Network latency average = 19.3887
	minimum = 7
	maximum = 40
Slowest packet = 8983
Flit latency average = 19.3887
	minimum = 7
	maximum = 40
Slowest flit = 8983
Fragmentation average = 0
	minimum = 0
	maximum = 0
Injected packet rate average = 0.0493125
	minimum = 0.041 (at node 8)
	maximum = 0.059 (at node 14)
Accepted packet rate average = 0.0485625
	minimum = 0.041 (at node 2)
	maximum = 0.058 (at node 11)
Injected flit rate average = 0.0493125
	minimum = 0.041 (at node 8)
	maximum = 0.059 (at node 14)
Accepted flit rate average= 0.0485625
	minimum = 0.041 (at node 2)
	maximum = 0.058 (at node 11)
Injected packet length average = 1
Accepted packet length average = 1
Total in-flight flits = 12 (0 measured)
latency change    = 0.010657
throughput change = 0.014157
Class 0:
Packet latency average = 19.4777
	minimum = 7
	maximum = 38
Network latency average = 19.4777
	minimum = 7
	maximum = 38
Slowest packet = 9765
Flit latency average = 19.4777
	minimum = 7
	maximum = 38
Slowest flit = 9765
Fragmentation average = 0
	minimum = 0
	maximum = 0
Injected packet rate average = 0.048
	minimum = 0.036 (at node 10)
	maximum = 0.058 (at node 15)
Accepted packet rate average = 0.047625
	minimum = 0.034 (at node 10)
	maximum = 0.058 (at node 15)
Injected flit rate average = 0.048
	minimum = 0.036 (at node 10)
	maximum = 0.058 (at node 15)
Accepted flit rate average= 0.047625
	minimum = 0.034 (at node 10)
	maximum = 0.058 (at node 15)
Injected packet length average = 1
Accepted packet length average = 1
Total in-flight flits = 15 (0 measured)
latency change    = 0.00457015
throughput change = 0.019685
Warmed up ...Time used is 1500 cycles
Class 0:
Packet latency average = 19.1592
	minimum = 7
	maximum = 38
Network latency average = 19.1592
	minimum = 7
	maximum = 38
Slowest packet = 10329
Flit latency average = 19.2321
	minimum = 7
	maximum = 38
Slowest flit = 10329
Fragmentation average = 0
	minimum = 0
	maximum = 0
Injected packet rate average = 0.0485
	minimum = 0.03 (at node 6)
	maximum = 0.062 (at node 15)
Accepted packet rate average = 0.049
	minimum = 0.028 (at node 9)
	maximum = 0.066 (at node 7)
Injected flit rate average = 0.0485
	minimum = 0.03 (at node 6)
	maximum = 0.062 (at node 15)
Accepted flit rate average= 0.049
	minimum = 0.028 (at node 9)
	maximum = 0.066 (at node 7)
Injected packet length average = 1
Accepted packet length average = 1
Total in-flight flits = 11 (11 measured)
latency change    = 0.016626
throughput change = 0.0280612
Class 0:
Packet latency average = 19.4948
	minimum = 7
	maximum = 39
Network latency average = 19.4948
	minimum = 7
	maximum = 39
Slowest packet = 10601
Flit latency average = 19.5247
	minimum = 7
	maximum = 39
Slowest flit = 10601
Fragmentation average = 0
	minimum = 0
	maximum = 0
Injected packet rate average = 0.0496875
	minimum = 0.038 (at node 3)
	maximum = 0.061 (at node 15)
Accepted packet rate average = 0.0494375
	minimum = 0.039 (at node 12)
	maximum = 0.061 (at node 15)
Injected flit rate average = 0.0496875
	minimum = 0.038 (at node 3)
	maximum = 0.061 (at node 15)
Accepted flit rate average= 0.0494375
	minimum = 0.039 (at node 12)
	maximum = 0.061 (at node 15)
Injected packet length average = 1
Accepted packet length average = 1
Total in-flight flits = 19 (19 measured)
latency change    = 0.0172196
throughput change = 0.00884956
Class 0:
Packet latency average = 19.4885
	minimum = 7
	maximum = 41
Network latency average = 19.4885
	minimum = 7
	maximum = 41
Slowest packet = 10896
Flit latency average = 19.5084
	minimum = 7
	maximum = 41
Slowest flit = 10896
Fragmentation average = 0
	minimum = 0
	maximum = 0
Injected packet rate average = 0.0495833
	minimum = 0.0413333 (at node 3)
	maximum = 0.0586667 (at node 15)
Accepted packet rate average = 0.0494167
	minimum = 0.0406667 (at node 12)
	maximum = 0.0586667 (at node 15)
Injected flit rate average = 0.0495833
	minimum = 0.0413333 (at node 3)
	maximum = 0.0586667 (at node 15)
Accepted flit rate average= 0.0494167
	minimum = 0.0406667 (at node 12)
	maximum = 0.0586667 (at node 15)
Injected packet length average = 1
Accepted packet length average = 1
Total in-flight flits = 19 (19 measured)
latency change    = 0.000327064
throughput change = 0.000421585
Draining all recorded packets ...
Draining remaining packets ...
Time taken is 3068 cycles
Class 0:
Packet latency average = 18.7135
	minimum = 7
	maximum = 42
Network latency average = 18.7135
	minimum = 7
	maximum = 42
Slowest packet = 11699
Flit latency average = 18.7135
	minimum = 7
	maximum = 42
Slowest flit = 11699
Fragmentation average = 0
	minimum = 0
	maximum = 0
Injected packet rate average = 0.049875
	minimum = 0.032 (at node 14)
	maximum = 0.064 (at node 0)
Accepted packet rate average = 0.048
	minimum = 0.032 (at node 11)
	maximum = 0.064 (at node 0)
Injected flit rate average = 0.049875
	minimum = 0.032 (at node 14)
	maximum = 0.064 (at node 0)
Accepted flit rate average= 0.048
	minimum = 0.032 (at node 11)
	maximum = 0.064 (at node 0)
Injected packet length average = 1
Accepted packet length average = 1
Total in-flight flits = 15 (0 measured)
latency change    = 1
throughput change = 1
Class 0:
Packet latency average = 18.8145
	minimum = 7
	maximum = 42
Network latency average = 18.8145
	minimum = 7
	maximum = 42
Slowest packet = 11699
Flit latency average = 18.8145
	minimum = 7
	maximum = 42
Slowest flit = 11699
Fragmentation average = 0
	minimum = 0
	maximum = 0
Injected packet rate average = 0.050125
	minimum = 0.036 (at node 7)
	maximum = 0.064 (at node 11)
Accepted packet rate average = 0.0491875
	minimum = 0.033 (at node 13)
	maximum = 0.064 (at node 14)
Injected flit rate average = 0.050125
	minimum = 0.036 (at node 7)
	maximum = 0.064 (at node 11)
Accepted flit rate average= 0.0491875
	minimum = 0.033 (at node 13)
	maximum = 0.064 (at node 14)
Injected packet length average = 1
Accepted packet length average = 1
Total in-flight flits = 15 (0 measured)
latency change    = 0.00536521
throughput change = 0.0241423
Class 0:
Packet latency average = 19.802
	minimum = 7
	maximum = 39
Network latency average = 19.802
	minimum = 7
	maximum = 39
Slowest packet = 12325
Flit latency average = 19.802
	minimum = 7
	maximum = 39
Slowest flit = 12325
Fragmentation average = 0
	minimum = 0
	maximum = 0
Injected packet rate average = 0.05
	minimum = 0.032 (at node 13)
	maximum = 0.07 (at node 1)
Accepted packet rate average = 0.0505
	minimum = 0.034 (at node 7)
	maximum = 0.07 (at node 4)
Injected flit rate average = 0.05
	minimum = 0.032 (at node 13)
	maximum = 0.07 (at node 1)
Accepted flit rate average= 0.0505
	minimum = 0.034 (at node 7)
	maximum = 0.07 (at node 4)
Injected packet length average = 1
Accepted packet length average = 1
Total in-flight flits = 11 (0 measured)
latency change    = 0.0498685
throughput change = 0.0259901
Warmed up ...Time used is 1500 cycles
Class 0:
Packet latency average = 19.3093
	minimum = 7
	maximum = 39
Network latency average = 19.3093
	minimum = 7
	maximum = 39
Slowest packet = 12737
Flit latency average = 19.5238
	minimum = 7
	maximum = 39
Slowest flit = 12737
Fragmentation average = 0
	minimum = 0
	maximum = 0
Injected packet rate average = 0.05525
	minimum = 0.036 (at node 2)
	maximum = 0.072 (at node 8)
Accepted packet rate average = 0.055125
	minimum = 0.036 (at node 8)
	maximum = 0.072 (at node 2)
Injected flit rate average = 0.05525
	minimum = 0.036 (at node 2)
	maximum = 0.072 (at node 8)
Accepted flit rate average= 0.055125
	minimum = 0.036 (at node 8)
	maximum = 0.072 (at node 2)
Injected packet length average = 1
Accepted packet length average = 1
Total in-flight flits = 12 (12 measured)
latency change    = 0.0255151
throughput change = 0.0839002
Class 0:
Packet latency average = 19.7463
	minimum = 7
	maximum = 39
Network latency average = 19.7463
	minimum = 7
	maximum = 39
Slowest packet = 12737
Flit latency average = 19.8554
	minimum = 7
	maximum = 39
Slowest flit = 12737
Fragmentation average = 0
	minimum = 0
	maximum = 0
Injected packet rate average = 0.0516875
	minimum = 0.044 (at node 0)
	maximum = 0.068 (at node 8)
Accepted packet rate average = 0.0514375
	minimum = 0.043 (at node 7)
	maximum = 0.068 (at node 2)
Injected flit rate average = 0.0516875
	minimum = 0.044 (at node 0)
	maximum = 0.068 (at node 8)
Accepted flit rate average= 0.0514375
	minimum = 0.043 (at node 7)
	maximum = 0.068 (at node 2)
Injected packet length average = 1
Accepted packet length average = 1
Total in-flight flits = 15 (15 measured)
latency change    = 0.0221309
throughput change = 0.0716889
Class 0:
Packet latency average = 19.5895
	minimum = 7
	maximum = 43
Network latency average = 19.5895
	minimum = 7
	maximum = 43
Slowest packet = 13374
Flit latency average = 19.6661
	minimum = 7
	maximum = 43
Slowest flit = 13374
Fragmentation average = 0
	minimum = 0
	maximum = 0
Injected packet rate average = 0.0500833
	minimum = 0.042 (at node 1)
	maximum = 0.0686667 (at node 8)
Accepted packet rate average = 0.0497917
	minimum = 0.0413333 (at node 4)
	maximum = 0.0686667 (at node 2)
Injected flit rate average = 0.0500833
	minimum = 0.042 (at node 1)
	maximum = 0.0686667 (at node 8)
Accepted flit rate average= 0.0497917
	minimum = 0.0413333 (at node 4)
	maximum = 0.0686667 (at node 2)
Injected packet length average = 1
Accepted packet length average = 1
Total in-flight flits = 18 (18 measured)
latency change    = 0.00800317
throughput change = 0.0330544
Class 0:
Packet latency average = 19.4602
	minimum = 7
	maximum = 43
Network latency average = 19.4602
	minimum = 7
	maximum = 43
Slowest packet = 13374
Flit latency average = 19.519
	minimum = 7
	maximum = 43
Slowest flit = 13374
Fragmentation average = 0
	minimum = 0
	maximum = 0
Injected packet rate average = 0.0496875
	minimum = 0.0415 (at node 1)
	maximum = 0.066 (at node 8)
Accepted packet rate average = 0.0494375
	minimum = 0.0415 (at node 4)
	maximum = 0.066 (at node 2)
Injected flit rate average = 0.0496875
	minimum = 0.0415 (at node 1)
	maximum = 0.066 (at node 8)
Accepted flit rate average= 0.0494375
	minimum = 0.0415 (at node 4)
	maximum = 0.066 (at node 2)
Injected packet length average = 1
Accepted packet length average = 1
Total in-flight flits = 19 (19 measured)
latency change    = 0.00664487
throughput change = 0.00716393
Class 0:
Packet latency average = 19.5126
	minimum = 7
	maximum = 43
Network latency average = 19.5126
	minimum = 7
	maximum = 43
Slowest packet = 13374
Flit latency average = 19.5579
	minimum = 7
	maximum = 43
Slowest flit = 13374
Fragmentation average = 0
	minimum = 0
	maximum = 0
Injected packet rate average = 0.051025
	minimum = 0.0424 (at node 1)
	maximum = 0.0628 (at node 8)
Accepted packet rate average = 0.05095
	minimum = 0.0424 (at node 4)
	maximum = 0.0628 (at node 2)
Injected flit rate average = 0.051025
	minimum = 0.0424 (at node 1)
	maximum = 0.0628 (at node 8)
Accepted flit rate average= 0.05095
	minimum = 0.0424 (at node 4)
	maximum = 0.0628 (at node 2)
Injected packet length average = 1
Accepted packet length average = 1
Total in-flight flits = 14 (14 measured)
latency change    = 0.00268359
throughput change = 0.029686
Draining all recorded packets ...
Draining remaining packets ...
Time taken is 4070 cycles
Class 0:
Packet latency average = 19.1142
	minimum = 7
	maximum = 40
Network latency average = 19.1142
	minimum = 7
	maximum = 40
Slowest packet = 14820
Flit latency average = 19.1142
	minimum = 7
	maximum = 40
Slowest flit = 14820
Fragmentation average = 0
	minimum = 0
	maximum = 0
Injected packet rate average = 0.046875
	minimum = 0.03 (at node 4)
	maximum = 0.064 (at node 5)
Accepted packet rate average = 0.044875
	minimum = 0.026 (at node 1)
	maximum = 0.064 (at node 5)
Injected flit rate average = 0.046875
	minimum = 0.03 (at node 4)
	maximum = 0.064 (at node 5)
Accepted flit rate average= 0.044875
	minimum = 0.026 (at node 1)
	maximum = 0.064 (at node 5)
Injected packet length average = 1
Accepted packet length average = 1
Total in-flight flits = 16 (0 measured)
latency change    = 1
throughput change = 1
Class 0:
Packet latency average = 19.2221
	minimum = 7
	maximum = 40
Network latency average = 19.2221
	minimum = 7
	maximum = 40
Slowest packet = 14820
Flit latency average = 19.2221
	minimum = 7
	maximum = 40
Slowest flit = 14820
Fragmentation average = 0
	minimum = 0
	maximum = 0
Injected packet rate average = 0.047
	minimum = 0.035 (at node 3)
	maximum = 0.053 (at node 1)
Accepted packet rate average = 0.0464375
	minimum = 0.033 (at node 12)
	maximum = 0.053 (at node 4)
Injected flit rate average = 0.047
	minimum = 0.035 (at node 3)
	maximum = 0.053 (at node 1)
Accepted flit rate average= 0.0464375
	minimum = 0.033 (at node 12)
	maximum = 0.053 (at node 4)
Injected packet length average = 1
Accepted packet length average = 1
Total in-flight flits = 9 (0 measured)
latency change    = 0.0056116
throughput change = 0.0336474
Class 0:
Packet latency average = 20.5064
	minimum = 7
	maximum = 44
Network latency average = 20.5064
	minimum = 7
	maximum = 44
Slowest packet = 15595
Flit latency average = 20.5064
	minimum = 7
	maximum = 44
Slowest flit = 15595
Fragmentation average = 0
	minimum = 0
	maximum = 0
Injected packet rate average = 0.0495
	minimum = 0.036 (at node 6)
	maximum = 0.068 (at node 12)
Accepted packet rate average = 0.048625
	minimum = 0.03 (at node 9)
	maximum = 0.068 (at node 3)
Injected flit rate average = 0.0495
	minimum = 0.036 (at node 6)
	maximum = 0.068 (at node 12)
Accepted flit rate average= 0.048625
	minimum = 0.03 (at node 9)
	maximum = 0.068 (at node 3)
Injected packet length average = 1
Accepted packet length average = 1
Total in-flight flits = 16 (0 measured)
latency change    = 0.0626318
throughput change = 0.0449871
Warmed up ...Time used is 1500 cycles
Class 0:
Packet latency average = 19.0156
	minimum = 7
	maximum = 39
Network latency average = 19.0156
	minimum = 7
	maximum = 39
Slowest packet = 15891
Flit latency average = 19.2394
	minimum = 7
	maximum = 39
Slowest flit = 15731
Fragmentation average = 0
	minimum = 0
	maximum = 0
Injected packet rate average = 0.05
	minimum = 0.04 (at node 3)
	maximum = 0.062 (at node 4)
Accepted packet rate average = 0.050125
	minimum = 0.04 (at node 5)
	maximum = 0.06 (at node 1)
Injected flit rate average = 0.05
	minimum = 0.04 (at node 3)
	maximum = 0.062 (at node 4)
Accepted flit rate average= 0.050125
	minimum = 0.04 (at node 5)
	maximum = 0.06 (at node 1)
Injected packet length average = 1
Accepted packet length average = 1
Total in-flight flits = 15 (15 measured)
latency change    = 0.0784011
throughput change = 0.0299252
Class 0:
Packet latency average = 18.8018
	minimum = 7
	maximum = 41
Network latency average = 18.8018
	minimum = 7
	maximum = 41
Slowest packet = 16343
Flit latency average = 18.9185
	minimum = 7
	maximum = 41
Slowest flit = 16343
Fragmentation average = 0
	minimum = 0
	maximum = 0
Injected packet rate average = 0.0498125
	minimum = 0.039 (at node 6)
	maximum = 0.061 (at node 4)
Accepted packet rate average = 0.049875
	minimum = 0.041 (at node 9)
	maximum = 0.062 (at node 1)
Injected flit rate average = 0.0498125
	minimum = 0.039 (at node 6)
	maximum = 0.061 (at node 4)
Accepted flit rate average= 0.049875
	minimum = 0.041 (at node 9)
	maximum = 0.062 (at node 1)
Injected packet length average = 1
Accepted packet length average = 1
Total in-flight flits = 15 (15 measured)
latency change    = 0.0113709
throughput change = 0.00501253
Class 0:
Packet latency average = 19.3356
	minimum = 7
	maximum = 47
Network latency average = 19.3356
	minimum = 7
	maximum = 47
Slowest packet = 16884
Flit latency average = 19.4071
	minimum = 7
	maximum = 47
Slowest flit = 16884
Fragmentation average = 0
	minimum = 0
	maximum = 0
Injected packet rate average = 0.0494167
	minimum = 0.0433333 (at node 7)
	maximum = 0.0613333 (at node 4)
Accepted packet rate average = 0.0493333
	minimum = 0.0426667 (at node 7)
	maximum = 0.062 (at node 1)
Injected flit rate average = 0.0494167
	minimum = 0.0433333 (at node 7)
	maximum = 0.0613333 (at node 4)
Accepted flit rate average= 0.0493333
	minimum = 0.0426667 (at node 7)
	maximum = 0.062 (at node 1)
Injected packet length average = 1
Accepted packet length average = 1
Total in-flight flits = 18 (18 measured)
latency change    = 0.0276084
throughput change = 0.0109797
Class 0:
Packet latency average = 19.6202
	minimum = 7
	maximum = 47
Network latency average = 19.6202
	minimum = 7
	maximum = 47
Slowest packet = 16884
Flit latency average = 19.6709
	minimum = 7
	maximum = 47
Slowest flit = 16884
Fragmentation average = 0
	minimum = 0
	maximum = 0
Injected packet rate average = 0.049375
	minimum = 0.0405 (at node 9)
	maximum = 0.0595 (at node 4)
Accepted packet rate average = 0.049375
	minimum = 0.0415 (at node 6)
	maximum = 0.059 (at node 1)
Injected flit rate average = 0.049375
	minimum = 0.0405 (at node 9)
	maximum = 0.0595 (at node 4)
Accepted flit rate average= 0.049375
	minimum = 0.0415 (at node 6)
	maximum = 0.059 (at node 1)
Injected packet length average = 1
Accepted packet length average = 1
Total in-flight flits = 16 (16 measured)
latency change    = 0.0145049
throughput change = 0.000843882
Draining all recorded packets ...
Draining remaining packets ...
Time taken is 3569 cycles
Class 0:
Packet latency average = 19.7717
	minimum = 7
	maximum = 40
Network latency average = 19.7717
	minimum = 7
	maximum = 40
Slowest packet = 17479
Flit latency average = 19.7717
	minimum = 7
	maximum = 40
Slowest flit = 17479
Fragmentation average = 0
	minimum = 0
	maximum = 0
Injected packet rate average = 0.05225
	minimum = 0.04 (at node 3)
	maximum = 0.064 (at node 4)
Accepted packet rate average = 0.050375
	minimum = 0.038 (at node 10)
	maximum = 0.064 (at node 1)
Injected flit rate average = 0.05225
	minimum = 0.04 (at node 3)
	maximum = 0.064 (at node 4)
Accepted flit rate average= 0.050375
	minimum = 0.038 (at node 10)
	maximum = 0.064 (at node 1)
Injected packet length average = 1
Accepted packet length average = 1
Total in-flight flits = 15 (0 measured)
latency change    = 1
throughput change = 1
Class 0:
Packet latency average = 19.5874
	minimum = 7
	maximum = 40
Network latency average = 19.5874
	minimum = 7
	maximum = 40
Slowest packet = 17479
Flit latency average = 19.5874
	minimum = 7
	maximum = 40
Slowest flit = 17479
Fragmentation average = 0
	minimum = 0
	maximum = 0
Injected packet rate average = 0.0504375
	minimum = 0.042 (at node 10)
	maximum = 0.064 (at node 13)
Accepted packet rate average = 0.0496875
	minimum = 0.042 (at node 10)
	maximum = 0.063 (at node 7)
Injected flit rate average = 0.0504375
	minimum = 0.042 (at node 10)
	maximum = 0.064 (at node 13)
Accepted flit rate average= 0.0496875
	minimum = 0.042 (at node 10)
	maximum = 0.063 (at node 7)
Injected packet length average = 1
Accepted packet length average = 1
Total in-flight flits = 12 (0 measured)
latency change    = 0.00940863
throughput change = 0.0138365
Class 0:
Packet latency average = 19.2494
	minimum = 7
	maximum = 45
Network latency average = 19.2494
	minimum = 7
	maximum = 45
Slowest packet = 18338
Flit latency average = 19.2494
	minimum = 7
	maximum = 45
Slowest flit = 18338
Fragmentation average = 0
	minimum = 0
	maximum = 0
Injected packet rate average = 0.04975
	minimum = 0.036 (at node 1)
	maximum = 0.066 (at node 13)
Accepted packet rate average = 0.048625
	minimum = 0.038 (at node 4)
	maximum = 0.064 (at node 7)
Injected flit rate average = 0.04975
	minimum = 0.036 (at node 1)
	maximum = 0.066 (at node 13)
Accepted flit rate average= 0.048625
	minimum = 0.038 (at node 4)
	maximum = 0.064 (at node 7)
Injected packet length average = 1
Accepted packet length average = 1
Total in-flight flits = 21 (0 measured)
latency change    = 0.0175624
throughput change = 0.0218509
Warmed up ...Time used is 1500 cycles
Class 0:
Packet latency average = 19.3534
	minimum = 7
	maximum = 41
Network latency average = 19.3534
	minimum = 7
	maximum = 41
Slowest packet = 18844
Flit latency average = 19.8119
	minimum = 7
	maximum = 41
Slowest flit = 18844
Fragmentation average = 0
	minimum = 0
	maximum = 0
Injected packet rate average = 0.051125
	minimum = 0.038 (at node 9)
	maximum = 0.068 (at node 6)
Accepted packet rate average = 0.0525
	minimum = 0.04 (at node 11)
	maximum = 0.07 (at node 9)
Injected flit rate average = 0.051125
	minimum = 0.038 (at node 9)
	maximum = 0.068 (at node 6)
Accepted flit rate average= 0.0525
	minimum = 0.04 (at node 11)
	maximum = 0.07 (at node 9)
Injected packet length average = 1
Accepted packet length average = 1
Total in-flight flits = 10 (10 measured)
latency change    = 0.00537509
throughput change = 0.0738095
Class 0:
Packet latency average = 19.6388
	minimum = 7
	maximum = 41
Network latency average = 19.6388
	minimum = 7
	maximum = 41
Slowest packet = 18844
Flit latency average = 19.8723
	minimum = 7
	maximum = 41
Slowest flit = 18844
Fragmentation average = 0
	minimum = 0
	maximum = 0
Injected packet rate average = 0.04925
	minimum = 0.039 (at node 2)
	maximum = 0.06 (at node 6)
Accepted packet rate average = 0.0499375
	minimum = 0.04 (at node 5)
	maximum = 0.061 (at node 9)
Injected flit rate average = 0.04925
	minimum = 0.039 (at node 2)
	maximum = 0.06 (at node 6)
Accepted flit rate average= 0.0499375
	minimum = 0.04 (at node 5)
	maximum = 0.061 (at node 9)
Injected packet length average = 1
Accepted packet length average = 1
Total in-flight flits = 10 (10 measured)
latency change    = 0.0145342
throughput change = 0.0513141
Class 0:
Packet latency average = 19.6527
	minimum = 7
	maximum = 42
Network latency average = 19.6527
	minimum = 7
	maximum = 42
Slowest packet = 19516
Flit latency average = 19.8096
	minimum = 7
	maximum = 42
Slowest flit = 19516
Fragmentation average = 0
	minimum = 0
	maximum = 0
Injected packet rate average = 0.0493333
	minimum = 0.0413333 (at node 5)
	maximum = 0.0606667 (at node 6)
Accepted packet rate average = 0.0494583
	minimum = 0.0413333 (at node 5)
	maximum = 0.0613333 (at node 9)
Injected flit rate average = 0.0493333
	minimum = 0.0413333 (at node 5)
	maximum = 0.0606667 (at node 6)
Accepted flit rate average= 0.0494583
	minimum = 0.0413333 (at node 5)
	maximum = 0.0613333 (at node 9)
Injected packet length average = 1
Accepted packet length average = 1
Total in-flight flits = 18 (18 measured)
latency change    = 0.000704291
throughput change = 0.00968829
Class 0:
Packet latency average = 19.7321
	minimum = 7
	maximum = 44
Network latency average = 19.7321
	minimum = 7
	maximum = 44
Slowest packet = 19896
Flit latency average = 19.8497
	minimum = 7
	maximum = 44
Slowest flit = 19896
Fragmentation average = 0
	minimum = 0
	maximum = 0
Injected packet rate average = 0.0488437
	minimum = 0.037 (at node 5)
	maximum = 0.0565 (at node 6)
Accepted packet rate average = 0.0490625
	minimum = 0.037 (at node 5)
	maximum = 0.0565 (at node 9)
Injected flit rate average = 0.0488437
	minimum = 0.037 (at node 5)
	maximum = 0.0565 (at node 6)
Accepted flit rate average= 0.0490625
	minimum = 0.037 (at node 5)
	maximum = 0.0565 (at node 9)
Injected packet length average = 1
Accepted packet length average = 1
Total in-flight flits = 14 (14 measured)
latency change    = 0.00402525
throughput change = 0.00806794
Class 0:
Packet latency average = 19.8918
	minimum = 7
	maximum = 44
Network latency average = 19.8918
	minimum = 7
	maximum = 44
Slowest packet = 19896
Flit latency average = 19.9851
	minimum = 7
	maximum = 44
Slowest flit = 19896
Fragmentation average = 0
	minimum = 0
	maximum = 0
Injected packet rate average = 0.04845
	minimum = 0.0364 (at node 5)
	maximum = 0.058 (at node 6)
Accepted packet rate average = 0.048575
	minimum = 0.0364 (at node 5)
	maximum = 0.058 (at node 9)
Injected flit rate average = 0.04845
	minimum = 0.0364 (at node 5)
	maximum = 0.058 (at node 6)
Accepted flit rate average= 0.048575
	minimum = 0.0364 (at node 5)
	maximum = 0.058 (at node 9)
Injected packet length average = 1
Accepted packet length average = 1
Total in-flight flits = 16 (16 measured)
latency change    = 0.00802815
throughput change = 0.010036
Draining all recorded packets ...
Draining remaining packets ...
Time taken is 4064 cycles
Class 0:
Packet latency average = 20.385
	minimum = 7
	maximum = 39
Network latency average = 20.385
	minimum = 7
	maximum = 39
Slowest packet = 20671
Flit latency average = 20.385
	minimum = 7
	maximum = 39
Slowest flit = 20671
Fragmentation average = 0
	minimum = 0
	maximum = 0
Injected packet rate average = 0.046125
	minimum = 0.026 (at node 12)
	maximum = 0.082 (at node 3)
Accepted packet rate average = 0.045125
	minimum = 0.026 (at node 3)
	maximum = 0.076 (at node 12)
Injected flit rate average = 0.046125
	minimum = 0.026 (at node 12)
	maximum = 0.082 (at node 3)
Accepted flit rate average= 0.045125
	minimum = 0.026 (at node 3)
	maximum = 0.076 (at node 12)
Injected packet length average = 1
Accepted packet length average = 1
Total in-flight flits = 8 (0 measured)
latency change    = 1
throughput change = 1
Class 0:
Packet latency average = 19.152
	minimum = 7
	maximum = 39
Network latency average = 19.152
	minimum = 7
	maximum = 39
Slowest packet = 20671
Flit latency average = 19.152
	minimum = 7
	maximum = 39
Slowest flit = 20671
Fragmentation average = 0
	minimum = 0
	maximum = 0
Injected packet rate average = 0.0485
	minimum = 0.032 (at node 12)
	maximum = 0.061 (at node 3)
Accepted packet rate average = 0.0476875
	minimum = 0.03 (at node 3)
	maximum = 0.06 (at node 12)
Injected flit rate average = 0.0485
	minimum = 0.032 (at node 12)
	maximum = 0.061 (at node 3)
Accepted flit rate average= 0.0476875
	minimum = 0.03 (at node 3)
	maximum = 0.06 (at node 12)
Injected packet length average = 1
Accepted packet length average = 1
Total in-flight flits = 13 (0 measured)
latency change    = 0.0643801
throughput change = 0.0537353
Class 0:
Packet latency average = 19.6505
	minimum = 7
	maximum = 39
Network latency average = 19.6505
	minimum = 7
	maximum = 39
Slowest packet = 21575
Flit latency average = 19.6505
	minimum = 7
	maximum = 39
Slowest flit = 21575
Fragmentation average = 0
	minimum = 0
	maximum = 0
Injected packet rate average = 0.05275
	minimum = 0.04 (at node 7)
	maximum = 0.07 (at node 13)
Accepted packet rate average = 0.0515
	minimum = 0.036 (at node 13)
	maximum = 0.066 (at node 2)
Injected flit rate average = 0.05275
	minimum = 0.04 (at node 7)
	maximum = 0.07 (at node 13)
Accepted flit rate average= 0.0515
	minimum = 0.036 (at node 13)
	maximum = 0.066 (at node 2)
Injected packet length average = 1
Accepted packet length average = 1
Total in-flight flits = 23 (0 measured)
latency change    = 0.025366
throughput change = 0.0740291
Warmed up ...Time used is 1500 cycles
Class 0:
Packet latency average = 19.4237
	minimum = 7
	maximum = 41
Network latency average = 19.4237
	minimum = 7
	maximum = 41
Slowest packet = 21917
Flit latency average = 19.7661
	minimum = 7
	maximum = 45
Slowest flit = 21698
Fragmentation average = 0
	minimum = 0
	maximum = 0
Injected packet rate average = 0.054
	minimum = 0.038 (at node 1)
	maximum = 0.072 (at node 10)
Accepted packet rate average = 0.0545
	minimum = 0.04 (at node 2)
	maximum = 0.07 (at node 3)
Injected flit rate average = 0.054
	minimum = 0.038 (at node 1)
	maximum = 0.072 (at node 10)
Accepted flit rate average= 0.0545
	minimum = 0.04 (at node 2)
	maximum = 0.07 (at node 3)
Injected packet length average = 1
Accepted packet length average = 1
Total in-flight flits = 19 (19 measured)
latency change    = 0.0116742
throughput change = 0.0550459
Class 0:
Packet latency average = 19.3637
	minimum = 7
	maximum = 41
Network latency average = 19.3637
	minimum = 7
	maximum = 41
Slowest packet = 21917
Flit latency average = 19.5444
	minimum = 7
	maximum = 45
Slowest flit = 21698
Fragmentation average = 0
	minimum = 0
	maximum = 0
Injected packet rate average = 0.051625
	minimum = 0.037 (at node 5)
	maximum = 0.069 (at node 14)
Accepted packet rate average = 0.052125
	minimum = 0.037 (at node 5)
	maximum = 0.071 (at node 11)
Injected flit rate average = 0.051625
	minimum = 0.037 (at node 5)
	maximum = 0.069 (at node 14)
Accepted flit rate average= 0.052125
	minimum = 0.037 (at node 5)
	maximum = 0.071 (at node 11)
Injected packet length average = 1
Accepted packet length average = 1
Total in-flight flits = 15 (15 measured)
latency change    = 0.00309756
throughput change = 0.0455635
Class 0:
Packet latency average = 19.1748
	minimum = 7
	maximum = 42
Network latency average = 19.1748
	minimum = 7
	maximum = 42
Slowest packet = 22775
Flit latency average = 19.2979
	minimum = 7
	maximum = 45
Slowest flit = 21698
Fragmentation average = 0
	minimum = 0
	maximum = 0
Injected packet rate average = 0.0522917
	minimum = 0.0406667 (at node 9)
	maximum = 0.0666667 (at node 14)
Accepted packet rate average = 0.0524583
	minimum = 0.0406667 (at node 6)
	maximum = 0.0673333 (at node 11)
Injected flit rate average = 0.0522917
	minimum = 0.0406667 (at node 9)
	maximum = 0.0666667 (at node 14)
Accepted flit rate average= 0.0524583
	minimum = 0.0406667 (at node 6)
	maximum = 0.0673333 (at node 11)
Injected packet length average = 1
Accepted packet length average = 1
Total in-flight flits = 19 (19 measured)
latency change    = 0.00985625
throughput change = 0.00635425
Class 0:
Packet latency average = 19.0572
	minimum = 7
	maximum = 42
Network latency average = 19.0572
	minimum = 7
	maximum = 42
Slowest packet = 22775
Flit latency average = 19.1509
	minimum = 7
	maximum = 45
Slowest flit = 21698
Fragmentation average = 0
	minimum = 0
	maximum = 0
Injected packet rate average = 0.0521563
	minimum = 0.04 (at node 9)
	maximum = 0.065 (at node 14)
Accepted packet rate average = 0.0525938
	minimum = 0.04 (at node 6)
	maximum = 0.065 (at node 11)
Injected flit rate average = 0.0521563
	minimum = 0.04 (at node 9)
	maximum = 0.065 (at node 14)
Accepted flit rate average= 0.0525938
	minimum = 0.04 (at node 6)
	maximum = 0.065 (at node 11)
Injected packet length average = 1
Accepted packet length average = 1
Total in-flight flits = 9 (9 measured)
latency change    = 0.00616713
throughput change = 0.00257477
Draining all recorded packets ...
Draining remaining packets ...
Time taken is 3554 cycles
Class 0:
Packet latency average = 19.7739
	minimum = 7
	maximum = 38
Network latency average = 19.7739
	minimum = 7
	maximum = 38
Slowest packet = 23529
Flit latency average = 19.7739
	minimum = 7
	maximum = 38
Slowest flit = 23529
Fragmentation average = 0
	minimum = 0
	maximum = 0
Injected packet rate average = 0.05225
	minimum = 0.038 (at node 13)
	maximum = 0.07 (at node 1)
Accepted packet rate average = 0.04975
	minimum = 0.036 (at node 7)
	maximum = 0.068 (at node 4)
Injected flit rate average = 0.05225
	minimum = 0.038 (at node 13)
	maximum = 0.07 (at node 1)
Accepted flit rate average= 0.04975
	minimum = 0.036 (at node 7)
	maximum = 0.068 (at node 4)
Injected packet length average = 1
Accepted packet length average = 1
Total in-flight flits = 20 (0 measured)
latency change    = 1
throughput change = 1
Class 0:
Packet latency average = 20.027
	minimum = 7
	maximum = 44
Network latency average = 20.027
	minimum = 7
	maximum = 44
Slowest packet = 23900
Flit latency average = 20.027
	minimum = 7
	maximum = 44
Slowest flit = 23900
Fragmentation average = 0
	minimum = 0
	maximum = 0
Injected packet rate average = 0.0518125
	minimum = 0.041 (at node 5)
	maximum = 0.062 (at node 4)
Accepted packet rate average = 0.050875
	minimum = 0.04 (at node 7)
	maximum = 0.062 (at node 1)
Injected flit rate average = 0.0518125
	minimum = 0.041 (at node 5)
	maximum = 0.062 (at node 4)
Accepted flit rate average= 0.050875
	minimum = 0.04 (at node 7)
	maximum = 0.062 (at node 1)
Injected packet length average = 1
Accepted packet length average = 1
Total in-flight flits = 15 (0 measured)
latency change    = 0.0126408
throughput change = 0.022113
Class 0:
Packet latency average = 20.1304
	minimum = 7
	maximum = 45
Network latency average = 20.1304
	minimum = 7
	maximum = 45
Slowest packet = 24336
Flit latency average = 20.1304
	minimum = 7
	maximum = 45
Slowest flit = 24336
Fragmentation average = 0
	minimum = 0
	maximum = 0
Injected packet rate average = 0.04875
	minimum = 0.024 (at node 5)
	maximum = 0.064 (at node 1)
Accepted packet rate average = 0.048875
	minimum = 0.024 (at node 5)
	maximum = 0.064 (at node 8)
Injected flit rate average = 0.04875
	minimum = 0.024 (at node 5)
	maximum = 0.064 (at node 1)
Accepted flit rate average= 0.048875
	minimum = 0.024 (at node 5)
	maximum = 0.064 (at node 8)
Injected packet length average = 1
Accepted packet length average = 1
Total in-flight flits = 14 (0 measured)
latency change    = 0.00513689
throughput change = 0.0409207
Warmed up ...Time used is 1500 cycles
Class 0:
Packet latency average = 19.0777
	minimum = 7
	maximum = 38
Network latency average = 19.0777
	minimum = 7
	maximum = 38
Slowest packet = 24708
Flit latency average = 19.2093
	minimum = 7
	maximum = 38
Slowest flit = 24708
Fragmentation average = 0
	minimum = 0
	maximum = 0
Injected packet rate average = 0.04825
	minimum = 0.03 (at node 10)
	maximum = 0.068 (at node 9)
Accepted packet rate average = 0.048375
	minimum = 0.03 (at node 10)
	maximum = 0.066 (at node 6)
Injected flit rate average = 0.04825
	minimum = 0.03 (at node 10)
	maximum = 0.068 (at node 9)
Accepted flit rate average= 0.048375
	minimum = 0.03 (at node 10)
	maximum = 0.066 (at node 6)
Injected packet length average = 1
Accepted packet length average = 1
Total in-flight flits = 13 (13 measured)
latency change    = 0.0551788
throughput change = 0.0103359
Class 0:
Packet latency average = 19.0491
	minimum = 7
	maximum = 38
Network latency average = 19.0491
	minimum = 7
	maximum = 38
Slowest packet = 24708
Flit latency average = 19.1159
	minimum = 7
	maximum = 38
Slowest flit = 24708
Fragmentation average = 0
	minimum = 0
	maximum = 0
Injected packet rate average = 0.0480625
	minimum = 0.033 (at node 10)
	maximum = 0.065 (at node 4)
Accepted packet rate average = 0.048
	minimum = 0.033 (at node 10)
	maximum = 0.066 (at node 1)
Injected flit rate average = 0.0480625
	minimum = 0.033 (at node 10)
	maximum = 0.065 (at node 4)
Accepted flit rate average= 0.048
	minimum = 0.033 (at node 10)
	maximum = 0.066 (at node 1)
Injected packet length average = 1
Accepted packet length average = 1
Total in-flight flits = 15 (15 measured)
latency change    = 0.00150539
throughput change = 0.0078125
Class 0:
Packet latency average = 19.1578
	minimum = 7
	maximum = 40
Network latency average = 19.1578
	minimum = 7
	maximum = 40
Slowest packet = 25516
Flit latency average = 19.2014
	minimum = 7
	maximum = 40
Slowest flit = 25516
Fragmentation average = 0
	minimum = 0
	maximum = 0
Injected packet rate average = 0.0475417
	minimum = 0.0346667 (at node 7)
	maximum = 0.0593333 (at node 4)
Accepted packet rate average = 0.0475833
	minimum = 0.0346667 (at node 13)
	maximum = 0.06 (at node 1)
Injected flit rate average = 0.0475417
	minimum = 0.0346667 (at node 7)
	maximum = 0.0593333 (at node 4)
Accepted flit rate average= 0.0475833
	minimum = 0.0346667 (at node 13)
	maximum = 0.06 (at node 1)
Injected packet length average = 1
Accepted packet length average = 1
Total in-flight flits = 13 (13 measured)
latency change    = 0.00567548
throughput change = 0.00875657
Class 0:
Packet latency average = 19.3062
	minimum = 7
	maximum = 45
Network latency average = 19.3062
	minimum = 7
	maximum = 45
Slowest packet = 25957
Flit latency average = 19.337
	minimum = 7
	maximum = 45
Slowest flit = 25957
Fragmentation average = 0
	minimum = 0
	maximum = 0
Injected packet rate average = 0.0485625
	minimum = 0.039 (at node 7)
	maximum = 0.055 (at node 4)
Accepted packet rate average = 0.0485
	minimum = 0.0395 (at node 13)
	maximum = 0.055 (at node 1)
Injected flit rate average = 0.0485625
	minimum = 0.039 (at node 7)
	maximum = 0.055 (at node 4)
Accepted flit rate average= 0.0485
	minimum = 0.0395 (at node 13)
	maximum = 0.055 (at node 1)
Injected packet length average = 1
Accepted packet length average = 1
Total in-flight flits = 16 (16 measured)
latency change    = 0.00768873
throughput change = 0.0189003
Draining all recorded packets ...
Draining remaining packets ...
Time taken is 3575 cycles
Class 0:
Packet latency average = 19.3725
	minimum = 7
	maximum = 39
Network latency average = 19.3725
	minimum = 7
	maximum = 39
Slowest packet = 26336
Flit latency average = 19.3725
	minimum = 7
	maximum = 39
Slowest flit = 26336
Fragmentation average = 0
	minimum = 0
	maximum = 0
Injected packet rate average = 0.05325
	minimum = 0.036 (at node 8)
	maximum = 0.072 (at node 7)
Accepted packet rate average = 0.051
	minimum = 0.032 (at node 3)
	maximum = 0.068 (at node 13)
Injected flit rate average = 0.05325
	minimum = 0.036 (at node 8)
	maximum = 0.072 (at node 7)
Accepted flit rate average= 0.051
	minimum = 0.032 (at node 3)
	maximum = 0.068 (at node 13)
Injected packet length average = 1
Accepted packet length average = 1
Total in-flight flits = 18 (0 measured)
latency change    = 1
throughput change = 1
Class 0:
Packet latency average = 19.0982
	minimum = 7
	maximum = 40
Network latency average = 19.0982
	minimum = 7
	maximum = 40
Slowest packet = 26833
Flit latency average = 19.0982
	minimum = 7
	maximum = 40
Slowest flit = 26833
Fragmentation average = 0
	minimum = 0
	maximum = 0
Injected packet rate average = 0.0505625
	minimum = 0.038 (at node 12)
	maximum = 0.059 (at node 11)
Accepted packet rate average = 0.049
	minimum = 0.036 (at node 2)
	maximum = 0.058 (at node 14)
Injected flit rate average = 0.0505625
	minimum = 0.038 (at node 12)
	maximum = 0.059 (at node 11)
Accepted flit rate average= 0.049
	minimum = 0.036 (at node 2)
	maximum = 0.058 (at node 14)
Injected packet length average = 1
Accepted packet length average = 1
Total in-flight flits = 25 (0 measured)
latency change    = 0.0143644
throughput change = 0.0408163
Class 0:
Packet latency average = 19.85
	minimum = 7
	maximum = 39
Network latency average = 19.85
	minimum = 7
	maximum = 39
Slowest packet = 27358
Flit latency average = 19.85
	minimum = 7
	maximum = 39
Slowest flit = 27358
Fragmentation average = 0
	minimum = 0
	maximum = 0
Injected packet rate average = 0.04825
	minimum = 0.036 (at node 6)
	maximum = 0.064 (at node 9)
Accepted packet rate average = 0.05
	minimum = 0.036 (at node 4)
	maximum = 0.064 (at node 6)
Injected flit rate average = 0.04825
	minimum = 0.036 (at node 6)
	maximum = 0.064 (at node 9)
Accepted flit rate average= 0.05
	minimum = 0.036 (at node 4)
	maximum = 0.064 (at node 6)
Injected packet length average = 1
Accepted packet length average = 1
Total in-flight flits = 11 (0 measured)
latency change    = 0.0378733
throughput change = 0.02
Warmed up ...Time used is 1500 cycles
Class 0:
Packet latency average = 18.9481
	minimum = 7
	maximum = 44
Network latency average = 18.9481
	minimum = 7
	maximum = 44
Slowest packet = 27725
Flit latency average = 19.0769
	minimum = 7
	maximum = 44
Slowest flit = 27725
Fragmentation average = 0
	minimum = 0
	maximum = 0
Injected packet rate average = 0.0475
	minimum = 0.03 (at node 5)
	maximum = 0.07 (at node 14)
Accepted packet rate average = 0.047125
	minimum = 0.03 (at node 5)
	maximum = 0.07 (at node 11)
Injected flit rate average = 0.0475
	minimum = 0.03 (at node 5)
	maximum = 0.07 (at node 14)
Accepted flit rate average= 0.047125
	minimum = 0.03 (at node 5)
	maximum = 0.07 (at node 11)
Injected packet length average = 1
Accepted packet length average = 1
Total in-flight flits = 14 (14 measured)
latency change    = 0.0475991
throughput change = 0.061008
Class 0:
Packet latency average = 18.8761
	minimum = 7
	maximum = 44
Network latency average = 18.8761
	minimum = 7
	maximum = 44
Slowest packet = 27725
Flit latency average = 18.9383
	minimum = 7
	maximum = 44
Slowest flit = 27725
Fragmentation average = 0
	minimum = 0
	maximum = 0
Injected packet rate average = 0.049625
	minimum = 0.036 (at node 3)
	maximum = 0.06 (at node 14)
Accepted packet rate average = 0.049625
	minimum = 0.036 (at node 12)
	maximum = 0.059 (at node 11)
Injected flit rate average = 0.049625
	minimum = 0.036 (at node 3)
	maximum = 0.06 (at node 14)
Accepted flit rate average= 0.049625
	minimum = 0.036 (at node 12)
	maximum = 0.059 (at node 11)
Injected packet length average = 1
Accepted packet length average = 1
Total in-flight flits = 11 (11 measured)
latency change    = 0.00381275
throughput change = 0.0503778
Class 0:
Packet latency average = 18.9508
	minimum = 7
	maximum = 44
Network latency average = 18.9483
	minimum = 7
	maximum = 44
Slowest packet = 27725
Flit latency average = 18.9891
	minimum = 7
	maximum = 44
Slowest flit = 27725
Fragmentation average = 0
	minimum = 0
	maximum = 0
Injected packet rate average = 0.0497083
	minimum = 0.0413333 (at node 2)
	maximum = 0.0586667 (at node 9)
Accepted packet rate average = 0.0495833
	minimum = 0.042 (at node 8)
	maximum = 0.0593333 (at node 6)
Injected flit rate average = 0.0497083
	minimum = 0.0413333 (at node 2)
	maximum = 0.0586667 (at node 9)
Accepted flit rate average= 0.0495833
	minimum = 0.042 (at node 8)
	maximum = 0.0593333 (at node 6)
Injected packet length average = 1
Accepted packet length average = 1
Total in-flight flits = 14 (14 measured)
latency change    = 0.00394117
throughput change = 0.000840336
Class 0:
Packet latency average = 19.2729
	minimum = 7
	maximum = 44
Network latency average = 19.271
	minimum = 7
	maximum = 44
Slowest packet = 27725
Flit latency average = 19.2992
	minimum = 7
	maximum = 44
Slowest flit = 27725
Fragmentation average = 0
	minimum = 0
	maximum = 0
Injected packet rate average = 0.0500937
	minimum = 0.045 (at node 13)
	maximum = 0.056 (at node 9)
Accepted packet rate average = 0.0498125
	minimum = 0.0455 (at node 7)
	maximum = 0.057 (at node 6)
Injected flit rate average = 0.0500937
	minimum = 0.045 (at node 13)
	maximum = 0.056 (at node 9)
Accepted flit rate average= 0.0498125
	minimum = 0.0455 (at node 7)
	maximum = 0.057 (at node 6)
Injected packet length average = 1
Accepted packet length average = 1
Total in-flight flits = 20 (20 measured)
latency change    = 0.0167123
throughput change = 0.00460059
Class 0:
Packet latency average = 19.3601
	minimum = 7
	maximum = 44
Network latency average = 19.3585
	minimum = 7
	maximum = 44
Slowest packet = 27725
Flit latency average = 19.3809
	minimum = 7
	maximum = 44
Slowest flit = 27725
Fragmentation average = 0
	minimum = 0
	maximum = 0
Injected packet rate average = 0.0493
	minimum = 0.0436 (at node 2)
	maximum = 0.0564 (at node 9)
Accepted packet rate average = 0.049225
	minimum = 0.0436 (at node 8)
	maximum = 0.0564 (at node 6)
Injected flit rate average = 0.0493
	minimum = 0.0436 (at node 2)
	maximum = 0.0564 (at node 9)
Accepted flit rate average= 0.049225
	minimum = 0.0436 (at node 8)
	maximum = 0.0564 (at node 6)
Injected packet length average = 1
Accepted packet length average = 1
Total in-flight flits = 14 (14 measured)
latency change    = 0.00450214
throughput change = 0.011935
Draining all recorded packets ...
Draining remaining packets ...
Time taken is 4060 cycles
Class 0:
Packet latency average = 18.6224
	minimum = 7
	maximum = 43
Network latency average = 18.6224
	minimum = 7
	maximum = 43
Slowest packet = 29719
Flit latency average = 18.6224
	minimum = 7
	maximum = 43
Slowest flit = 29719
Fragmentation average = 0
	minimum = 0
	maximum = 0
Injected packet rate average = 0.049875
	minimum = 0.034 (at node 12)
	maximum = 0.058 (at node 1)
Accepted packet rate average = 0.049
	minimum = 0.032 (at node 3)
	maximum = 0.058 (at node 4)
Injected flit rate average = 0.049875
	minimum = 0.034 (at node 12)
	maximum = 0.058 (at node 1)
Accepted flit rate average= 0.049
	minimum = 0.032 (at node 3)
	maximum = 0.058 (at node 4)
Injected packet length average = 1
Accepted packet length average = 1
Total in-flight flits = 7 (0 measured)
latency change    = 1
throughput change = 1
Class 0:
Packet latency average = 19.3111
	minimum = 7
	maximum = 43
Network latency average = 19.3111
	minimum = 7
	maximum = 43
Slowest packet = 29719
Flit latency average = 19.3111
	minimum = 7
	maximum = 43
Slowest flit = 29719
Fragmentation average = 0
	minimum = 0
	maximum = 0
Injected packet rate average = 0.0494375
	minimum = 0.035 (at node 6)
	maximum = 0.061 (at node 7)
Accepted packet rate average = 0.0488125
	minimum = 0.035 (at node 9)
	maximum = 0.061 (at node 13)
Injected flit rate average = 0.0494375
	minimum = 0.035 (at node 6)
	maximum = 0.061 (at node 7)
Accepted flit rate average= 0.0488125
	minimum = 0.035 (at node 9)
	maximum = 0.061 (at node 13)
Injected packet length average = 1
Accepted packet length average = 1
Total in-flight flits = 10 (0 measured)
latency change    = 0.0356629
throughput change = 0.00384123
Class 0:
Packet latency average = 19.9947
	minimum = 7
	maximum = 45
Network latency average = 19.9947
	minimum = 7
	maximum = 45
Slowest packet = 30246
Flit latency average = 19.9947
	minimum = 7
	maximum = 45
Slowest flit = 30246
Fragmentation average = 0
	minimum = 0
	maximum = 0
Injected packet rate average = 0.047875
	minimum = 0.028 (at node 5)
	maximum = 0.058 (at node 8)
Accepted packet rate average = 0.0475
	minimum = 0.028 (at node 5)
	maximum = 0.058 (at node 2)
Injected flit rate average = 0.047875
	minimum = 0.028 (at node 5)
	maximum = 0.058 (at node 8)
Accepted flit rate average= 0.0475
	minimum = 0.028 (at node 5)
	maximum = 0.058 (at node 2)
Injected packet length average = 1
Accepted packet length average = 1
Total in-flight flits = 13 (0 measured)
latency change    = 0.0341889
throughput change = 0.0276316
Warmed up ...Time used is 1500 cycles
Class 0:
Packet latency average = 19.497
	minimum = 7
	maximum = 37
Network latency average = 19.497
	minimum = 7
	maximum = 37
Slowest packet = 30590
Flit latency average = 19.6058
	minimum = 7
	maximum = 37
Slowest flit = 30563
Fragmentation average = 0
	minimum = 0
	maximum = 0
Injected packet rate average = 0.043875
	minimum = 0.024 (at node 14)
	maximum = 0.062 (at node 2)
Accepted packet rate average = 0.043125
	minimum = 0.028 (at node 11)
	maximum = 0.062 (at node 5)
Injected flit rate average = 0.043875
	minimum = 0.024 (at node 14)
	maximum = 0.062 (at node 2)
Accepted flit rate average= 0.043125
	minimum = 0.028 (at node 11)
	maximum = 0.062 (at node 5)
Injected packet length average = 1
Accepted packet length average = 1
Total in-flight flits = 19 (19 measured)
latency change    = 0.0255295
throughput change = 0.101449
Class 0:
Packet latency average = 20.3564
	minimum = 7
	maximum = 46
Network latency average = 20.3564
	minimum = 7
	maximum = 46
Slowest packet = 31161
Flit latency average = 20.3921
	minimum = 7
	maximum = 46
Slowest flit = 31161
Fragmentation average = 0
	minimum = 0
	maximum = 0
Injected packet rate average = 0.0461875
	minimum = 0.031 (at node 14)
	maximum = 0.063 (at node 6)
Accepted packet rate average = 0.0460625
	minimum = 0.033 (at node 10)
	maximum = 0.062 (at node 9)
Injected flit rate average = 0.0461875
	minimum = 0.031 (at node 14)
	maximum = 0.063 (at node 6)
Accepted flit rate average= 0.0460625
	minimum = 0.033 (at node 10)
	maximum = 0.062 (at node 9)
Injected packet length average = 1
Accepted packet length average = 1
Total in-flight flits = 15 (15 measured)
latency change    = 0.0422161
throughput change = 0.063772
Class 0:
Packet latency average = 20
	minimum = 7
	maximum = 46
Network latency average = 20
	minimum = 7
	maximum = 46
Slowest packet = 31161
Flit latency average = 20.027
	minimum = 7
	maximum = 46
Slowest flit = 31161
Fragmentation average = 0
	minimum = 0
	maximum = 0
Injected packet rate average = 0.047875
	minimum = 0.034 (at node 15)
	maximum = 0.058 (at node 2)
Accepted packet rate average = 0.0477917
	minimum = 0.0346667 (at node 15)
	maximum = 0.0566667 (at node 8)
Injected flit rate average = 0.047875
	minimum = 0.034 (at node 15)
	maximum = 0.058 (at node 2)
Accepted flit rate average= 0.0477917
	minimum = 0.0346667 (at node 15)
	maximum = 0.0566667 (at node 8)
Injected packet length average = 1
Accepted packet length average = 1
Total in-flight flits = 15 (15 measured)
latency change    = 0.0178177
throughput change = 0.0361813
Class 0:
Packet latency average = 19.8871
	minimum = 7
	maximum = 46
Network latency average = 19.8871
	minimum = 7
	maximum = 46
Slowest packet = 31161
Flit latency average = 19.9081
	minimum = 7
	maximum = 46
Slowest flit = 31161
Fragmentation average = 0
	minimum = 0
	maximum = 0
Injected packet rate average = 0.0483125
	minimum = 0.0345 (at node 15)
	maximum = 0.058 (at node 6)
Accepted packet rate average = 0.0482812
	minimum = 0.035 (at node 15)
	maximum = 0.0585 (at node 9)
Injected flit rate average = 0.0483125
	minimum = 0.0345 (at node 15)
	maximum = 0.058 (at node 6)
Accepted flit rate average= 0.0482812
	minimum = 0.035 (at node 15)
	maximum = 0.0585 (at node 9)
Injected packet length average = 1
Accepted packet length average = 1
Total in-flight flits = 14 (14 measured)
latency change    = 0.00567827
throughput change = 0.0101402
Class 0:
Packet latency average = 19.9002
	minimum = 7
	maximum = 46
Network latency average = 19.8987
	minimum = 7
	maximum = 46
Slowest packet = 31161
Flit latency average = 19.915
	minimum = 7
	maximum = 46
Slowest flit = 31161
Fragmentation average = 0
	minimum = 0
	maximum = 0
Injected packet rate average = 0.049425
	minimum = 0.0384 (at node 15)
	maximum = 0.056 (at node 5)
Accepted packet rate average = 0.049425
	minimum = 0.0384 (at node 11)
	maximum = 0.056 (at node 4)
Injected flit rate average = 0.049425
	minimum = 0.0384 (at node 15)
	maximum = 0.056 (at node 5)
Accepted flit rate average= 0.049425
	minimum = 0.0384 (at node 11)
	maximum = 0.056 (at node 4)
Injected packet length average = 1
Accepted packet length average = 1
Total in-flight flits = 13 (13 measured)
latency change    = 0.000659689
throughput change = 0.0231411
Draining all recorded packets ...
Draining remaining packets ...
Time taken is 4054 cycles
Class 0:
Packet latency average = 18.83
	minimum = 7
	maximum = 47
Network latency average = 18.83
	minimum = 7
	maximum = 47
Slowest packet = 32588
Flit latency average = 18.83
	minimum = 7
	maximum = 47
Slowest flit = 32588
Fragmentation average = 0
	minimum = 0
	maximum = 0
Injected packet rate average = 0.045375
	minimum = 0.018 (at node 13)
	maximum = 0.068 (at node 15)
Accepted packet rate average = 0.044125
	minimum = 0.016 (at node 7)
	maximum = 0.066 (at node 15)
Injected flit rate average = 0.045375
	minimum = 0.018 (at node 13)
	maximum = 0.068 (at node 15)
Accepted flit rate average= 0.044125
	minimum = 0.016 (at node 7)
	maximum = 0.066 (at node 15)
Injected packet length average = 1
Accepted packet length average = 1
Total in-flight flits = 10 (0 measured)
latency change    = 1
throughput change = 1
Class 0:
Packet latency average = 18.8879
	minimum = 7
	maximum = 47
Network latency average = 18.8879
	minimum = 7
	maximum = 47
Slowest packet = 32588
Flit latency average = 18.8879
	minimum = 7
	maximum = 47
Slowest flit = 32588
Fragmentation average = 0
	minimum = 0
	maximum = 0
Injected packet rate average = 0.04825
	minimum = 0.036 (at node 13)
	maximum = 0.067 (at node 15)
Accepted packet rate average = 0.047375
	minimum = 0.036 (at node 7)
	maximum = 0.067 (at node 15)
Injected flit rate average = 0.04825
	minimum = 0.036 (at node 13)
	maximum = 0.067 (at node 15)
Accepted flit rate average= 0.047375
	minimum = 0.036 (at node 7)
	maximum = 0.067 (at node 15)
Injected packet length average = 1
Accepted packet length average = 1
Total in-flight flits = 14 (0 measured)
latency change    = 0.00306199
throughput change = 0.0686016
Class 0:
Packet latency average = 20.1759
	minimum = 7
	maximum = 40
Network latency average = 20.1759
	minimum = 7
	maximum = 40
Slowest packet = 33692
Flit latency average = 20.1759
	minimum = 7
	maximum = 40
Slowest flit = 33692
Fragmentation average = 0
	minimum = 0
	maximum = 0
Injected packet rate average = 0.048375
	minimum = 0.024 (at node 5)
	maximum = 0.062 (at node 3)
Accepted packet rate average = 0.047625
	minimum = 0.028 (at node 5)
	maximum = 0.062 (at node 9)
Injected flit rate average = 0.048375
	minimum = 0.024 (at node 5)
	maximum = 0.062 (at node 3)
Accepted flit rate average= 0.047625
	minimum = 0.028 (at node 5)
	maximum = 0.062 (at node 9)
Injected packet length average = 1
Accepted packet length average = 1
Total in-flight flits = 20 (0 measured)
latency change    = 0.0638382
throughput change = 0.00524934
Warmed up ...Time used is 1500 cycles
Class 0:
Packet latency average = 18.7843
	minimum = 7
	maximum = 38
Network latency average = 18.7843
	minimum = 7
	maximum = 38
Slowest packet = 33760
Flit latency average = 19.0468
	minimum = 7
	maximum = 38
Slowest flit = 33760
Fragmentation average = 0
	minimum = 0
	maximum = 0
Injected packet rate average = 0.045
	minimum = 0.03 (at node 15)
	maximum = 0.06 (at node 9)
Accepted packet rate average = 0.045375
	minimum = 0.032 (at node 15)
	maximum = 0.06 (at node 6)
Injected flit rate average = 0.045
	minimum = 0.03 (at node 15)
	maximum = 0.06 (at node 9)
Accepted flit rate average= 0.045375
	minimum = 0.032 (at node 15)
	maximum = 0.06 (at node 6)
Injected packet length average = 1
Accepted packet length average = 1
Total in-flight flits = 17 (17 measured)
latency change    = 0.0740831
throughput change = 0.0495868
Class 0:
Packet latency average = 18.8275
	minimum = 7
	maximum = 45
Network latency average = 18.8275
	minimum = 7
	maximum = 45
Slowest packet = 34427
Flit latency average = 18.9505
	minimum = 7
	maximum = 45
Slowest flit = 34427
Fragmentation average = 0
	minimum = 0
	maximum = 0
Injected packet rate average = 0.048125
	minimum = 0.037 (at node 7)
	maximum = 0.059 (at node 0)
Accepted packet rate average = 0.048
	minimum = 0.036 (at node 3)
	maximum = 0.059 (at node 0)
Injected flit rate average = 0.048125
	minimum = 0.037 (at node 7)
	maximum = 0.059 (at node 0)
Accepted flit rate average= 0.048
	minimum = 0.036 (at node 3)
	maximum = 0.059 (at node 0)
Injected packet length average = 1
Accepted packet length average = 1
Total in-flight flits = 22 (22 measured)
latency change    = 0.00229895
throughput change = 0.0546875
Class 0:
Packet latency average = 19.0594
	minimum = 7
	maximum = 46
Network latency average = 19.0594
	minimum = 7
	maximum = 46
Slowest packet = 34477
Flit latency average = 19.1344
	minimum = 7
	maximum = 46
Slowest flit = 34477
Fragmentation average = 0
	minimum = 0
	maximum = 0
Injected packet rate average = 0.0497083
	minimum = 0.0426667 (at node 7)
	maximum = 0.06 (at node 4)
Accepted packet rate average = 0.0499167
	minimum = 0.0426667 (at node 13)
	maximum = 0.0593333 (at node 1)
Injected flit rate average = 0.0497083
	minimum = 0.0426667 (at node 7)
	maximum = 0.06 (at node 4)
Accepted flit rate average= 0.0499167
	minimum = 0.0426667 (at node 13)
	maximum = 0.0593333 (at node 1)
Injected packet length average = 1
Accepted packet length average = 1
Total in-flight flits = 15 (15 measured)
latency change    = 0.0121663
throughput change = 0.0383973
Class 0:
Packet latency average = 19.1327
	minimum = 7
	maximum = 47
Network latency average = 19.1327
	minimum = 7
	maximum = 47
Slowest packet = 35202
Flit latency average = 19.1878
	minimum = 7
	maximum = 47
Slowest flit = 35202
Fragmentation average = 0
	minimum = 0
	maximum = 0
Injected packet rate average = 0.0499687
	minimum = 0.044 (at node 2)
	maximum = 0.062 (at node 4)
Accepted packet rate average = 0.0500937
	minimum = 0.0445 (at node 11)
	maximum = 0.0615 (at node 1)
Injected flit rate average = 0.0499687
	minimum = 0.044 (at node 2)
	maximum = 0.062 (at node 4)
Accepted flit rate average= 0.0500937
	minimum = 0.0445 (at node 11)
	maximum = 0.0615 (at node 1)
Injected packet length average = 1
Accepted packet length average = 1
Total in-flight flits = 16 (16 measured)
latency change    = 0.00382784
throughput change = 0.00353504
Class 0:
Packet latency average = 19.0726
	minimum = 7
	maximum = 47
Network latency average = 19.0726
	minimum = 7
	maximum = 47
Slowest packet = 35202
Flit latency average = 19.1173
	minimum = 7
	maximum = 47
Slowest flit = 35202
Fragmentation average = 0
	minimum = 0
	maximum = 0
Injected packet rate average = 0.05005
	minimum = 0.044 (at node 2)
	maximum = 0.0628 (at node 4)
Accepted packet rate average = 0.050075
	minimum = 0.044 (at node 3)
	maximum = 0.062 (at node 1)
Injected flit rate average = 0.05005
	minimum = 0.044 (at node 2)
	maximum = 0.0628 (at node 4)
Accepted flit rate average= 0.050075
	minimum = 0.044 (at node 3)
	maximum = 0.062 (at node 1)
Injected packet length average = 1
Accepted packet length average = 1
Total in-flight flits = 19 (19 measured)
latency change    = 0.00314809
throughput change = 0.000374438
Draining all recorded packets ...
Draining remaining packets ...
Time taken is 4063 cycles
Class 0:
Packet latency average = 19.3291
	minimum = 7
	maximum = 40
Network latency average = 19.3291
	minimum = 7
	maximum = 40
Slowest packet = 35913
Flit latency average = 19.3291
	minimum = 7
	maximum = 40
Slowest flit = 35913
Fragmentation average = 0
	minimum = 0
	maximum = 0
Injected packet rate average = 0.051375
	minimum = 0.038 (at node 2)
	maximum = 0.076 (at node 1)
Accepted packet rate average = 0.049375
	minimum = 0.038 (at node 8)
	maximum = 0.07 (at node 4)
Injected flit rate average = 0.051375
	minimum = 0.038 (at node 2)
	maximum = 0.076 (at node 1)
Accepted flit rate average= 0.049375
	minimum = 0.038 (at node 8)
	maximum = 0.07 (at node 4)
Injected packet length average = 1
Accepted packet length average = 1
Total in-flight flits = 16 (0 measured)
latency change    = 1
throughput change = 1
Class 0:
Packet latency average = 19.7054
	minimum = 7
	maximum = 45
Network latency average = 19.7054
	minimum = 7
	maximum = 45
Slowest packet = 36325
Flit latency average = 19.7054
	minimum = 7
	maximum = 45
Slowest flit = 36325
Fragmentation average = 0
	minimum = 0
	maximum = 0
Injected packet rate average = 0.0505625
	minimum = 0.041 (at node 4)
	maximum = 0.072 (at node 1)
Accepted packet rate average = 0.0494375
	minimum = 0.041 (at node 1)
	maximum = 0.069 (at node 4)
Injected flit rate average = 0.0505625
	minimum = 0.041 (at node 4)
	maximum = 0.072 (at node 1)
Accepted flit rate average= 0.0494375
	minimum = 0.041 (at node 1)
	maximum = 0.069 (at node 4)
Injected packet length average = 1
Accepted packet length average = 1
Total in-flight flits = 18 (0 measured)
latency change    = 0.0190974
throughput change = 0.00126422
Class 0:
Packet latency average = 20.0169
	minimum = 7
	maximum = 42
Network latency average = 20.0169
	minimum = 7
	maximum = 42
Slowest packet = 36880
Flit latency average = 20.0169
	minimum = 7
	maximum = 42
Slowest flit = 36880
Fragmentation average = 0
	minimum = 0
	maximum = 0
Injected packet rate average = 0.051625
	minimum = 0.04 (at node 0)
	maximum = 0.068 (at node 15)
Accepted packet rate average = 0.051875
	minimum = 0.04 (at node 0)
	maximum = 0.068 (at node 15)
Injected flit rate average = 0.051625
	minimum = 0.04 (at node 0)
	maximum = 0.068 (at node 15)
Accepted flit rate average= 0.051875
	minimum = 0.04 (at node 0)
	maximum = 0.068 (at node 15)
Injected packet length average = 1
Accepted packet length average = 1
Total in-flight flits = 16 (0 measured)
latency change    = 0.0155584
throughput change = 0.046988
Warmed up ...Time used is 1500 cycles
Class 0:
Packet latency average = 18.8182
	minimum = 7
	maximum = 41
Network latency average = 18.8182
[...]
	minimum = 7
	maximum = 41
Slowest flit = 129988
Fragmentation average = 0
	minimum = 0
	maximum = 0
Injected packet rate average = 0.0474375
	minimum = 0.037 (at node 3)
	maximum = 0.057 (at node 14)
Accepted packet rate average = 0.04725
	minimum = 0.037 (at node 12)
	maximum = 0.057 (at node 11)
Injected flit rate average = 0.0474375
	minimum = 0.037 (at node 3)
	maximum = 0.057 (at node 14)
Accepted flit rate average= 0.04725
	minimum = 0.037 (at node 12)
	maximum = 0.057 (at node 11)
Injected packet length average = 1
Accepted packet length average = 1
Total in-flight flits = 13 (13 measured)
latency change    = 0.0139355
throughput change = 0.021164
Class 0:
Packet latency average = 19.1538
	minimum = 7
	maximum = 41
Network latency average = 19.1538
	minimum = 7
	maximum = 41
Slowest packet = 129988
Flit latency average = 19.1794
	minimum = 7
	maximum = 41
Slowest flit = 129988
Fragmentation average = 0
	minimum = 0
	maximum = 0
Injected packet rate average = 0.0482083
	minimum = 0.0393333 (at node 3)
	maximum = 0.0573333 (at node 10)
Accepted packet rate average = 0.0480833
	minimum = 0.038 (at node 12)
	maximum = 0.0573333 (at node 11)
Injected flit rate average = 0.0482083
	minimum = 0.0393333 (at node 3)
	maximum = 0.0573333 (at node 10)
Accepted flit rate average= 0.0480833
	minimum = 0.038 (at node 12)
	maximum = 0.0573333 (at node 11)
Injected packet length average = 1
Accepted packet length average = 1
Total in-flight flits = 13 (13 measured)
latency change    = 0.00838205
throughput change = 0.017331
Class 0:
Packet latency average = 19.2284
	minimum = 7
	maximum = 47
Network latency average = 19.2284
	minimum = 7
	maximum = 47
Slowest packet = 130841
Flit latency average = 19.2472
	minimum = 7
	maximum = 47
Slowest flit = 130841
Fragmentation average = 0
	minimum = 0
	maximum = 0
Injected packet rate average = 0.048125
	minimum = 0.0405 (at node 3)
	maximum = 0.0565 (at node 14)
Accepted packet rate average = 0.0477812
	minimum = 0.039 (at node 12)
	maximum = 0.0555 (at node 11)
Injected flit rate average = 0.048125
	minimum = 0.0405 (at node 3)
	maximum = 0.0565 (at node 14)
Accepted flit rate average= 0.0477812
	minimum = 0.039 (at node 12)
	maximum = 0.0555 (at node 11)
Injected packet length average = 1
Accepted packet length average = 1
Total in-flight flits = 21 (21 measured)
latency change    = 0.00387934
throughput change = 0.00632221
Draining all recorded packets ...
Draining remaining packets ...
Time taken is 3572 cycles
Class 0:
Packet latency average = 19.8267
	minimum = 7
	maximum = 41
Network latency average = 19.8267
	minimum = 7
	maximum = 41
Slowest packet = 131430
Flit latency average = 19.8267
	minimum = 7
	maximum = 41
Slowest flit = 131430
Fragmentation average = 0
	minimum = 0
	maximum = 0
Injected packet rate average = 0.0525
	minimum = 0.04 (at node 9)
	maximum = 0.062 (at node 2)
Accepted packet rate average = 0.0505
	minimum = 0.038 (at node 15)
	maximum = 0.06 (at node 1)
Injected flit rate average = 0.0525
	minimum = 0.04 (at node 9)
	maximum = 0.062 (at node 2)
Accepted flit rate average= 0.0505
	minimum = 0.038 (at node 15)
	maximum = 0.06 (at node 1)
Injected packet length average = 1
Accepted packet length average = 1
Total in-flight flits = 16 (0 measured)
latency change    = 1
throughput change = 1
Class 0:
Packet latency average = 19.4202
	minimum = 7
	maximum = 43
Network latency average = 19.4202
	minimum = 7
	maximum = 43
Slowest packet = 131853
Flit latency average = 19.4202
	minimum = 7
	maximum = 43
Slowest flit = 131853
Fragmentation average = 0
	minimum = 0
	maximum = 0
Injected packet rate average = 0.051125
	minimum = 0.038 (at node 9)
	maximum = 0.063 (at node 6)
Accepted packet rate average = 0.050125
	minimum = 0.038 (at node 6)
	maximum = 0.062 (at node 9)
Injected flit rate average = 0.051125
	minimum = 0.038 (at node 9)
	maximum = 0.063 (at node 6)
Accepted flit rate average= 0.050125
	minimum = 0.038 (at node 6)
	maximum = 0.062 (at node 9)
Injected packet length average = 1
Accepted packet length average = 1
Total in-flight flits = 16 (0 measured)
latency change    = 0.0209335
throughput change = 0.0074813
Class 0:
Packet latency average = 19.0171
	minimum = 7
	maximum = 43
Network latency average = 19.0171
	minimum = 7
	maximum = 43
Slowest packet = 131887
Flit latency average = 19.0171
	minimum = 7
	maximum = 43
Slowest flit = 131887
Fragmentation average = 0
	minimum = 0
	maximum = 0
Injected packet rate average = 0.05125
	minimum = 0.038 (at node 2)
	maximum = 0.07 (at node 5)
Accepted packet rate average = 0.051125
	minimum = 0.038 (at node 6)
	maximum = 0.07 (at node 5)
Injected flit rate average = 0.05125
	minimum = 0.038 (at node 2)
	maximum = 0.07 (at node 5)
Accepted flit rate average= 0.051125
	minimum = 0.038 (at node 6)
	maximum = 0.07 (at node 5)
Injected packet length average = 1
Accepted packet length average = 1
Total in-flight flits = 17 (0 measured)
latency change    = 0.0211959
throughput change = 0.0195599
Warmed up ...Time used is 1500 cycles
Class 0:
Packet latency average = 19.9608
	minimum = 7
	maximum = 39
Network latency average = 19.9608
	minimum = 7
	maximum = 39
Slowest packet = 132609
Flit latency average = 20.325
	minimum = 7
	maximum = 39
Slowest flit = 132609
Fragmentation average = 0
	minimum = 0
	maximum = 0
Injected packet rate average = 0.04925
	minimum = 0.032 (at node 4)
	maximum = 0.072 (at node 2)
Accepted packet rate average = 0.05
	minimum = 0.03 (at node 1)
	maximum = 0.07 (at node 7)
Injected flit rate average = 0.04925
	minimum = 0.032 (at node 4)
	maximum = 0.072 (at node 2)
Accepted flit rate average= 0.05
	minimum = 0.03 (at node 1)
	maximum = 0.07 (at node 7)
Injected packet length average = 1
Accepted packet length average = 1
Total in-flight flits = 11 (11 measured)
latency change    = 0.0472786
throughput change = 0.0225
Class 0:
Packet latency average = 19.7714
	minimum = 7
	maximum = 41
Network latency average = 19.7714
	minimum = 7
	maximum = 41
Slowest packet = 133039
Flit latency average = 19.9606
	minimum = 7
	maximum = 41
Slowest flit = 133039
Fragmentation average = 0
	minimum = 0
	maximum = 0
Injected packet rate average = 0.0490625
	minimum = 0.03 (at node 6)
	maximum = 0.059 (at node 2)
Accepted packet rate average = 0.0491875
	minimum = 0.032 (at node 9)
	maximum = 0.059 (at node 8)
Injected flit rate average = 0.0490625
	minimum = 0.03 (at node 6)
	maximum = 0.059 (at node 2)
Accepted flit rate average= 0.0491875
	minimum = 0.032 (at node 9)
	maximum = 0.059 (at node 8)
Injected packet length average = 1
Accepted packet length average = 1
Total in-flight flits = 15 (15 measured)
latency change    = 0.00957983
throughput change = 0.0165184
Class 0:
Packet latency average = 19.6435
	minimum = 7
	maximum = 41
Network latency average = 19.6435
	minimum = 7
	maximum = 41
Slowest packet = 133039
Flit latency average = 19.7711
	minimum = 7
	maximum = 41
Slowest flit = 133039
Fragmentation average = 0
	minimum = 0
	maximum = 0
Injected packet rate average = 0.049125
	minimum = 0.0406667 (at node 6)
	maximum = 0.0566667 (at node 14)
Accepted packet rate average = 0.0493333
	minimum = 0.042 (at node 9)
	maximum = 0.0566667 (at node 11)
Injected flit rate average = 0.049125
	minimum = 0.0406667 (at node 6)
	maximum = 0.0566667 (at node 14)
Accepted flit rate average= 0.0493333
	minimum = 0.042 (at node 9)
	maximum = 0.0566667 (at node 11)
Injected packet length average = 1
Accepted packet length average = 1
Total in-flight flits = 12 (12 measured)
latency change    = 0.00651096
throughput change = 0.00295608
Draining all recorded packets ...
Draining remaining packets ...
Time taken is 3058 cycles
Class 0:
Packet latency average = 18.471
	minimum = 7
	maximum = 39
Network latency average = 18.471
	minimum = 7
	maximum = 39
Slowest packet = 133571
Flit latency average = 18.471
	minimum = 7
	maximum = 39
Slowest flit = 133571
Fragmentation average = 0
	minimum = 0
	maximum = 0
Injected packet rate average = 0.053625
	minimum = 0.04 (at node 1)
	maximum = 0.072 (at node 9)
Accepted packet rate average = 0.05175
	minimum = 0.038 (at node 8)
	maximum = 0.072 (at node 6)
Injected flit rate average = 0.053625
	minimum = 0.04 (at node 1)
	maximum = 0.072 (at node 9)
Accepted flit rate average= 0.05175
	minimum = 0.038 (at node 8)
	maximum = 0.072 (at node 6)
Injected packet length average = 1
Accepted packet length average = 1
Total in-flight flits = 15 (0 measured)
latency change    = 1
throughput change = 1
Class 0:
Packet latency average = 19.3487
	minimum = 7
	maximum = 39
Network latency average = 19.3487
	minimum = 7
	maximum = 39
Slowest packet = 133571
Flit latency average = 19.3487
	minimum = 7
	maximum = 39
Slowest flit = 133571
Fragmentation average = 0
	minimum = 0
	maximum = 0
Injected packet rate average = 0.0540625
	minimum = 0.047 (at node 1)
	maximum = 0.063 (at node 11)
Accepted packet rate average = 0.052875
	minimum = 0.046 (at node 4)
	maximum = 0.062 (at node 14)
Injected flit rate average = 0.0540625
	minimum = 0.047 (at node 1)
	maximum = 0.063 (at node 11)
Accepted flit rate average= 0.052875
	minimum = 0.046 (at node 4)
	maximum = 0.062 (at node 14)
Injected packet length average = 1
Accepted packet length average = 1
Total in-flight flits = 19 (0 measured)
latency change    = 0.0453615
throughput change = 0.0212766
Class 0:
Packet latency average = 19.8238
	minimum = 7
	maximum = 38
Network latency average = 19.8238
	minimum = 7
	maximum = 38
Slowest packet = 134393
Flit latency average = 19.8238
	minimum = 7
	maximum = 38
Slowest flit = 134393
Fragmentation average = 0
	minimum = 0
	maximum = 0
Injected packet rate average = 0.05225
	minimum = 0.034 (at node 5)
	maximum = 0.078 (at node 2)
Accepted packet rate average = 0.0525
	minimum = 0.034 (at node 5)
	maximum = 0.078 (at node 8)
Injected flit rate average = 0.05225
	minimum = 0.034 (at node 5)
	maximum = 0.078 (at node 2)
Accepted flit rate average= 0.0525
	minimum = 0.034 (at node 5)
	maximum = 0.078 (at node 8)
Injected packet length average = 1
Accepted packet length average = 1
Total in-flight flits = 17 (0 measured)
latency change    = 0.0239666
throughput change = 0.00714286
Warmed up ...Time used is 1500 cycles
Class 0:
Packet latency average = 19.7035
	minimum = 7
	maximum = 42
Network latency average = 19.7035
	minimum = 7
	maximum = 42
Slowest packet = 134807
Flit latency average = 19.9108
	minimum = 7
	maximum = 42
Slowest flit = 134807
Fragmentation average = 0
	minimum = 0
	maximum = 0
Injected packet rate average = 0.0515
	minimum = 0.032 (at node 14)
	maximum = 0.066 (at node 7)
Accepted packet rate average = 0.051875
	minimum = 0.032 (at node 11)
	maximum = 0.068 (at node 13)
Injected flit rate average = 0.0515
	minimum = 0.032 (at node 14)
	maximum = 0.066 (at node 7)
Accepted flit rate average= 0.051875
	minimum = 0.032 (at node 11)
	maximum = 0.068 (at node 13)
Injected packet length average = 1
Accepted packet length average = 1
Total in-flight flits = 14 (14 measured)
latency change    = 0.0061051
throughput change = 0.0120482
Class 0:
Packet latency average = 19.2685
	minimum = 7
	maximum = 42
Network latency average = 19.2685
	minimum = 7
	maximum = 42
Slowest packet = 134807
Flit latency average = 19.3833
	minimum = 7
	maximum = 42
Slowest flit = 134807
Fragmentation average = 0
	minimum = 0
	maximum = 0
Injected packet rate average = 0.0505
	minimum = 0.038 (at node 1)
	maximum = 0.061 (at node 5)
Accepted packet rate average = 0.050875
	minimum = 0.039 (at node 4)
	maximum = 0.061 (at node 5)
Injected flit rate average = 0.0505
	minimum = 0.038 (at node 1)
	maximum = 0.061 (at node 5)
Accepted flit rate average= 0.050875
	minimum = 0.039 (at node 4)
	maximum = 0.061 (at node 5)
Injected packet length average = 1
Accepted packet length average = 1
Total in-flight flits = 11 (11 measured)
latency change    = 0.0225763
throughput change = 0.019656
Class 0:
Packet latency average = 19.4509
	minimum = 7
	maximum = 42
Network latency average = 19.4509
	minimum = 7
	maximum = 42
Slowest packet = 134807
Flit latency average = 19.5257
	minimum = 7
	maximum = 42
Slowest flit = 134807
Fragmentation average = 0
	minimum = 0
	maximum = 0
Injected packet rate average = 0.0506667
	minimum = 0.0406667 (at node 1)
	maximum = 0.058 (at node 15)
Accepted packet rate average = 0.0503333
	minimum = 0.0406667 (at node 4)
	maximum = 0.058 (at node 15)
Injected flit rate average = 0.0506667
	minimum = 0.0406667 (at node 1)
	maximum = 0.058 (at node 15)
Accepted flit rate average= 0.0503333
	minimum = 0.0406667 (at node 4)
	maximum = 0.058 (at node 15)
Injected packet length average = 1
Accepted packet length average = 1
Total in-flight flits = 25 (25 measured)
latency change    = 0.00937617
throughput change = 0.0107616
Draining all recorded packets ...
Draining remaining packets ...
Time taken is 3070 cycles
Class 0:
Packet latency average = 18.8805
	minimum = 7
	maximum = 38
Network latency average = 18.8805
	minimum = 7
	maximum = 38
Slowest packet = 136272
Flit latency average = 18.8805
	minimum = 7
	maximum = 38
Slowest flit = 136272
Fragmentation average = 0
	minimum = 0
	maximum = 0
Injected packet rate average = 0.05025
	minimum = 0.034 (at node 3)
	maximum = 0.062 (at node 5)
Accepted packet rate average = 0.048125
	minimum = 0.032 (at node 12)
	maximum = 0.06 (at node 5)
Injected flit rate average = 0.05025
	minimum = 0.034 (at node 3)
	maximum = 0.062 (at node 5)
Accepted flit rate average= 0.048125
	minimum = 0.032 (at node 12)
	maximum = 0.06 (at node 5)
Injected packet length average = 1
Accepted packet length average = 1
Total in-flight flits = 17 (0 measured)
latency change    = 1
throughput change = 1
Class 0:
Packet latency average = 19.1883
	minimum = 7
	maximum = 38
Network latency average = 19.1883
	minimum = 7
	maximum = 38
Slowest packet = 136272
Flit latency average = 19.1883
	minimum = 7
	maximum = 38
Slowest flit = 136272
Fragmentation average = 0
	minimum = 0
	maximum = 0
Injected packet rate average = 0.051
	minimum = 0.041 (at node 3)
	maximum = 0.059 (at node 5)
Accepted packet rate average = 0.050125
	minimum = 0.039 (at node 12)
	maximum = 0.058 (at node 5)
Injected flit rate average = 0.051
	minimum = 0.041 (at node 3)
	maximum = 0.059 (at node 5)
Accepted flit rate average= 0.050125
	minimum = 0.039 (at node 12)
	maximum = 0.058 (at node 5)
Injected packet length average = 1
Accepted packet length average = 1
Total in-flight flits = 14 (0 measured)
latency change    = 0.0160389
throughput change = 0.0399002
Class 0:
Packet latency average = 19.6742
	minimum = 7
	maximum = 44
Network latency average = 19.6742
	minimum = 7
	maximum = 44
Slowest packet = 136839
Flit latency average = 19.6742
	minimum = 7
	maximum = 44
Slowest flit = 136839
Fragmentation average = 0
	minimum = 0
	maximum = 0
Injected packet rate average = 0.045125
	minimum = 0.03 (at node 15)
	maximum = 0.06 (at node 5)
Accepted packet rate average = 0.044125
	minimum = 0.03 (at node 1)
	maximum = 0.06 (at node 5)
Injected flit rate average = 0.045125
	minimum = 0.03 (at node 15)
	maximum = 0.06 (at node 5)
Accepted flit rate average= 0.044125
	minimum = 0.03 (at node 1)
	maximum = 0.06 (at node 5)
Injected packet length average = 1
Accepted packet length average = 1
Total in-flight flits = 22 (0 measured)
latency change    = 0.0246994
throughput change = 0.135977
Warmed up ...Time used is 1500 cycles
Class 0:
Packet latency average = 18.8586
	minimum = 7
	maximum = 40
Network latency average = 18.8586
	minimum = 7
	maximum = 40
Slowest packet = 137251
Flit latency average = 19.0438
	minimum = 7
	maximum = 40
Slowest flit = 137251
Fragmentation average = 0
	minimum = 0
	maximum = 0
Injected packet rate average = 0.05
	minimum = 0.032 (at node 9)
	maximum = 0.068 (at node 10)
Accepted packet rate average = 0.051375
	minimum = 0.036 (at node 6)
	maximum = 0.068 (at node 10)
Injected flit rate average = 0.05
	minimum = 0.032 (at node 9)
	maximum = 0.068 (at node 10)
Accepted flit rate average= 0.051375
	minimum = 0.036 (at node 6)
	maximum = 0.068 (at node 10)
Injected packet length average = 1
Accepted packet length average = 1
Total in-flight flits = 11 (11 measured)
latency change    = 0.0432486
throughput change = 0.141119
Class 0:
Packet latency average = 19.2722
	minimum = 7
	maximum = 40
Network latency average = 19.2722
	minimum = 7
	maximum = 40
Slowest packet = 137251
Flit latency average = 19.3547
	minimum = 7
	maximum = 40
Slowest flit = 137251
Fragmentation average = 0
	minimum = 0
	maximum = 0
Injected packet rate average = 0.050125
	minimum = 0.032 (at node 9)
	maximum = 0.062 (at node 10)
Accepted packet rate average = 0.05075
	minimum = 0.034 (at node 6)
	maximum = 0.063 (at node 10)
Injected flit rate average = 0.050125
	minimum = 0.032 (at node 9)
	maximum = 0.062 (at node 10)
Accepted flit rate average= 0.05075
	minimum = 0.034 (at node 6)
	maximum = 0.063 (at node 10)
Injected packet length average = 1
Accepted packet length average = 1
Total in-flight flits = 12 (12 measured)
latency change    = 0.0214579
throughput change = 0.0123153
Class 0:
Packet latency average = 19.6094
	minimum = 7
	maximum = 40
Network latency average = 19.6094
	minimum = 7
	maximum = 40
Slowest packet = 137251
Flit latency average = 19.6577
	minimum = 7
	maximum = 40
Slowest flit = 137251
Fragmentation average = 0
	minimum = 0
	maximum = 0
Injected packet rate average = 0.0508333
	minimum = 0.0373333 (at node 9)
	maximum = 0.064 (at node 10)
Accepted packet rate average = 0.051375
	minimum = 0.0386667 (at node 6)
	maximum = 0.0646667 (at node 10)
Injected flit rate average = 0.0508333
	minimum = 0.0373333 (at node 9)
	maximum = 0.064 (at node 10)
Accepted flit rate average= 0.051375
	minimum = 0.0386667 (at node 6)
	maximum = 0.0646667 (at node 10)
Injected packet length average = 1
Accepted packet length average = 1
Total in-flight flits = 9 (9 measured)
latency change    = 0.017199
throughput change = 0.0121655
Class 0:
Packet latency average = 19.5576
	minimum = 7
	maximum = 42
Network latency average = 19.5576
	minimum = 7
	maximum = 42
Slowest packet = 138498
Flit latency average = 19.5951
	minimum = 7
	maximum = 42
Slowest flit = 138498
Fragmentation average = 0
	minimum = 0
	maximum = 0
Injected packet rate average = 0.0503437
	minimum = 0.043 (at node 0)
	maximum = 0.0615 (at node 10)
Accepted packet rate average = 0.050625
	minimum = 0.043 (at node 0)
	maximum = 0.062 (at node 10)
Injected flit rate average = 0.0503437
	minimum = 0.043 (at node 0)
	maximum = 0.0615 (at node 10)
Accepted flit rate average= 0.050625
	minimum = 0.043 (at node 0)
	maximum = 0.062 (at node 10)
Injected packet length average = 1
Accepted packet length average = 1
Total in-flight flits = 13 (13 measured)
latency change    = 0.00265072
throughput change = 0.0148148
Draining all recorded packets ...
Draining remaining packets ...
Time taken is 3566 cycles
====== Overall Traffic Statistics ======
====== Traffic class 0 ======
Packet latency average = 19.5197 (50 samples)
	minimum = 7 (50 samples)
	maximum = 43.7 (50 samples)
Network latency average = 19.5195 (50 samples)
	minimum = 7 (50 samples)
	maximum = 43.7 (50 samples)
Flit latency average = 19.5708 (50 samples)
	minimum = 7 (50 samples)
	maximum = 43.84 (50 samples)
Fragmentation average = 0 (50 samples)
	minimum = 0 (50 samples)
	maximum = 0 (50 samples)
Injected packet rate average = 0.0500923 (50 samples)
	minimum = 0.0412293 (50 samples)
	maximum = 0.0597953 (50 samples)
Accepted packet rate average = 0.0500806 (50 samples)
	minimum = 0.0412433 (50 samples)
	maximum = 0.059632 (50 samples)
Injected flit rate average = 0.0500923 (50 samples)
	minimum = 0.0412293 (50 samples)
	maximum = 0.0597953 (50 samples)
Accepted flit rate average = 0.0500806 (50 samples)
	minimum = 0.0412433 (50 samples)
	maximum = 0.059632 (50 samples)
Injected packet size average = 1 (50 samples)
Accepted packet size average = 1 (50 samples)
Hops average = 3.48709 (50 samples)
Total run time 7.76047
