BEGIN Configuration File: /tmp/tmpymrkzygg.cfg
topology = mesh;
k = 4;
n = 2;
routing_function = planar_adapt;
num_vcs = 4;
vc_buf_size = 4;
wait_for_tail_credit = 1;
vc_allocator = islip;
sw_allocator = islip;
alloc_iters = 1;
credit_delay = 2;
routing_delay = 1;
vc_alloc_delay = 1;
sw_alloc_delay = 1;
input_speedup = 2;
output_speedup = 1;
internal_speedup = 1.0;
traffic = hotspot;
packet_size = 1;
sim_type = latency;
injection_rate = 0.01;
warmup_periods = 3;
sample_period = 500;
sim_count = 50;
seed = 2;
link_failures = 1;
fail_seed = 101;

END Configuration File: /tmp/tmpymrkzygg.cfg
failure at node 14, channel 0 (1/1)
Class 0:
Packet latency average = 22.4677
	minimum = 7
	maximum = 42
Network latency average = 22.4677
	minimum = 7
	maximum = 42
Slowest packet = 17
Flit latency average = 22.4677
	minimum = 7
	maximum = 42
Slowest flit = 17
Fragmentation average = 0
	minimum = 0
	maximum = 0
Injected packet rate average = 0.008125
	minimum = 0 (at node 9)
	maximum = 0.014 (at node 5)
Accepted packet rate average = 0.00775
	minimum = 0 (at node 0)
	maximum = 0.124 (at node 12)
Injected flit rate average = 0.008125
	minimum = 0 (at node 9)
	maximum = 0.014 (at node 5)
Accepted flit rate average= 0.00775
	minimum = 0 (at node 0)
	maximum = 0.124 (at node 12)
Injected packet length average = 1
Accepted packet length average = 1
Total in-flight flits = 3 (0 measured)
latency change    = 1
throughput change = 1
Class 0:
Packet latency average = 22.2537
	minimum = 7
	maximum = 42
Network latency average = 22.2537
	minimum = 7
	maximum = 42
Slowest packet = 17
Flit latency average = 22.2537
	minimum = 7
	maximum = 42
Slowest flit = 17
Fragmentation average = 0
	minimum = 0
	maximum = 0
Injected packet rate average = 0.008625
	minimum = 0.003 (at node 2)
	maximum = 0.015 (at node 13)
Accepted packet rate average = 0.008375
	minimum = 0 (at node 0)
	maximum = 0.134 (at node 12)
Injected flit rate average = 0.008625
	minimum = 0.003 (at node 2)
	maximum = 0.015 (at node 13)
Accepted flit rate average= 0.008375
	minimum = 0 (at node 0)
	maximum = 0.134 (at node 12)
Injected packet length average = 1
Accepted packet length average = 1
Total in-flight flits = 4 (0 measured)
latency change    = 0.00961684
throughput change = 0.0746269
Class 0:
Packet latency average = 21.4337
	minimum = 7
	maximum = 48
Network latency average = 21.4337
	minimum = 7
	maximum = 48
Slowest packet = 160
Flit latency average = 21.4337
	minimum = 7
	maximum = 48
Slowest flit = 160
Fragmentation average = 0
	minimum = 0
	maximum = 0
Injected packet rate average = 0.01
	minimum = 0.002 (at node 3)
	maximum = 0.022 (at node 13)
Accepted packet rate average = 0.010375
	minimum = 0 (at node 0)
	maximum = 0.166 (at node 12)
Injected flit rate average = 0.01
	minimum = 0.002 (at node 3)
	maximum = 0.022 (at node 13)
Accepted flit rate average= 0.010375
	minimum = 0 (at node 0)
	maximum = 0.166 (at node 12)
Injected packet length average = 1
Accepted packet length average = 1
Total in-flight flits = 1 (0 measured)
latency change    = 0.0382573
throughput change = 0.192771
Warmed up ...Time used is 1500 cycles
Class 0:
Packet latency average = 25.0588
	minimum = 7
	maximum = 46
Network latency average = 25.0588
	minimum = 7
	maximum = 46
Slowest packet = 238
Flit latency average = 25.0814
	minimum = 7
	maximum = 46
Slowest flit = 238
Fragmentation average = 0
	minimum = 0
	maximum = 0
Injected packet rate average = 0.01125
	minimum = 0.004 (at node 15)
	maximum = 0.022 (at node 10)
Accepted packet rate average = 0.01075
	minimum = 0 (at node 0)
	maximum = 0.172 (at node 12)
Injected flit rate average = 0.01125
	minimum = 0.004 (at node 15)
	maximum = 0.022 (at node 10)
Accepted flit rate average= 0.01075
	minimum = 0 (at node 0)
	maximum = 0.172 (at node 12)
Injected packet length average = 1
Accepted packet length average = 1
Total in-flight flits = 5 (5 measured)
latency change    = 0.144663
throughput change = 0.0348837
Class 0:
Packet latency average = 24.7771
	minimum = 7
	maximum = 46
Network latency average = 24.7771
	minimum = 7
	maximum = 46
Slowest packet = 238
Flit latency average = 24.7904
	minimum = 7
	maximum = 46
Slowest flit = 238
Fragmentation average = 0
	minimum = 0
	maximum = 0
Injected packet rate average = 0.0105
	minimum = 0.006 (at node 2)
	maximum = 0.015 (at node 3)
Accepted packet rate average = 0.0104375
	minimum = 0 (at node 0)
	maximum = 0.167 (at node 12)
Injected flit rate average = 0.0105
	minimum = 0.006 (at node 2)
	maximum = 0.015 (at node 3)
Accepted flit rate average= 0.0104375
	minimum = 0 (at node 0)
	maximum = 0.167 (at node 12)
Injected packet length average = 1
Accepted packet length average = 1
Total in-flight flits = 2 (2 measured)
latency change    = 0.01137
throughput change = 0.0299401
Class 0:
Packet latency average = 24.3889
	minimum = 7
	maximum = 46
Network latency average = 24.3889
	minimum = 7
	maximum = 46
Slowest packet = 238
Flit latency average = 24.4
	minimum = 7
	maximum = 46
Slowest flit = 238
Fragmentation average = 0
	minimum = 0
	maximum = 0
Injected packet rate average = 0.00983333
	minimum = 0.00666667 (at node 1)
	maximum = 0.0153333 (at node 3)
Accepted packet rate average = 0.00979167
	minimum = 0 (at node 0)
	maximum = 0.156667 (at node 12)
Injected flit rate average = 0.00983333
	minimum = 0.00666667 (at node 1)
	maximum = 0.0153333 (at node 3)
Accepted flit rate average= 0.00979167
	minimum = 0 (at node 0)
	maximum = 0.156667 (at node 12)
Injected packet length average = 1
Accepted packet length average = 1
Total in-flight flits = 2 (2 measured)
latency change    = 0.0159179
throughput change = 0.0659574
Class 0:
Packet latency average = 23.7156
	minimum = 7
	maximum = 46
Network latency average = 23.7156
	minimum = 7
	maximum = 46
Slowest packet = 238
Flit latency average = 23.7259
	minimum = 7
	maximum = 46
Slowest flit = 238
Fragmentation average = 0
	minimum = 0
	maximum = 0
Injected packet rate average = 0.0101875
	minimum = 0.0065 (at node 8)
	maximum = 0.014 (at node 10)
Accepted packet rate average = 0.0100313
	minimum = 0 (at node 0)
	maximum = 0.1605 (at node 12)
Injected flit rate average = 0.0101875
	minimum = 0.0065 (at node 8)
	maximum = 0.014 (at node 10)
Accepted flit rate average= 0.0100313
	minimum = 0 (at node 0)
	maximum = 0.1605 (at node 12)
Injected packet length average = 1
Accepted packet length average = 1
Total in-flight flits = 6 (6 measured)
latency change    = 0.028389
throughput change = 0.0238837
Class 0:
Packet latency average = 23.7408
	minimum = 7
	maximum = 49
Network latency average = 23.7408
	minimum = 7
	maximum = 49
Slowest packet = 596
Flit latency average = 23.7488
	minimum = 7
	maximum = 49
Slowest flit = 596
Fragmentation average = 0
	minimum = 0
	maximum = 0
Injected packet rate average = 0.010275
	minimum = 0.0076 (at node 1)
	maximum = 0.0136 (at node 12)
Accepted packet rate average = 0.01025
	minimum = 0 (at node 0)
	maximum = 0.164 (at node 12)
Injected flit rate average = 0.010275
	minimum = 0.0076 (at node 1)
	maximum = 0.0136 (at node 12)
Accepted flit rate average= 0.01025
	minimum = 0 (at node 0)
	maximum = 0.164 (at node 12)
Injected packet length average = 1
Accepted packet length average = 1
Total in-flight flits = 2 (2 measured)
latency change    = 0.00106173
throughput change = 0.0213415
Class 0:
Packet latency average = 23.5492
	minimum = 7
	maximum = 49
Network latency average = 23.5492
	minimum = 7
	maximum = 49
Slowest packet = 596
Flit latency average = 23.5562
	minimum = 7
	maximum = 49
Slowest flit = 596
Fragmentation average = 0
	minimum = 0
	maximum = 0
Injected packet rate average = 0.0103125
	minimum = 0.00766667 (at node 1)
	maximum = 0.0136667 (at node 10)
Accepted packet rate average = 0.0101875
	minimum = 0 (at node 0)
	maximum = 0.163 (at node 12)
Injected flit rate average = 0.0103125
	minimum = 0.00766667 (at node 1)
	maximum = 0.0136667 (at node 10)
Accepted flit rate average= 0.0101875
	minimum = 0 (at node 0)
	maximum = 0.163 (at node 12)
Injected packet length average = 1
Accepted packet length average = 1
Total in-flight flits = 7 (7 measured)
latency change    = 0.00813833
throughput change = 0.00613497
Draining all recorded packets ...
Draining remaining packets ...
Time taken is 4558 cycles
Class 0:
Packet latency average = 24.2319
	minimum = 7
	maximum = 46
Network latency average = 24.2319
	minimum = 7
	maximum = 46
Slowest packet = 770
Flit latency average = 24.2319
	minimum = 7
	maximum = 46
Slowest flit = 770
Fragmentation average = 0
	minimum = 0
	maximum = 0
Injected packet rate average = 0.009
	minimum = 0.004 (at node 13)
	maximum = 0.026 (at node 5)
Accepted packet rate average = 0.008625
	minimum = 0 (at node 0)
	maximum = 0.138 (at node 12)
Injected flit rate average = 0.009
	minimum = 0.004 (at node 13)
	maximum = 0.026 (at node 5)
Accepted flit rate average= 0.008625
	minimum = 0 (at node 0)
	maximum = 0.138 (at node 12)
Injected packet length average = 1
Accepted packet length average = 1
Total in-flight flits = 3 (0 measured)
latency change    = 1
throughput change = 1
Class 0:
Packet latency average = 24.8679
	minimum = 7
	maximum = 46
Network latency average = 24.8679
	minimum = 7
	maximum = 46
Slowest packet = 770
Flit latency average = 24.8679
	minimum = 7
	maximum = 46
Slowest flit = 770
Fragmentation average = 0
	minimum = 0
	maximum = 0
Injected packet rate average = 0.0100625
	minimum = 0.005 (at node 2)
	maximum = 0.018 (at node 5)
Accepted packet rate average = 0.0099375
	minimum = 0 (at node 0)
	maximum = 0.159 (at node 12)
Injected flit rate average = 0.0100625
	minimum = 0.005 (at node 2)
	maximum = 0.018 (at node 5)
Accepted flit rate average= 0.0099375
	minimum = 0 (at node 0)
	maximum = 0.159 (at node 12)
Injected packet length average = 1
Accepted packet length average = 1
Total in-flight flits = 2 (0 measured)
latency change    = 0.0255767
throughput change = 0.132075
Class 0:
Packet latency average = 21.6533
	minimum = 7
	maximum = 45
Network latency average = 21.6533
	minimum = 7
	maximum = 45
Slowest packet = 931
Flit latency average = 21.6533
	minimum = 7
	maximum = 45
Slowest flit = 931
Fragmentation average = 0
	minimum = 0
	maximum = 0
Injected packet rate average = 0.009625
	minimum = 0.004 (at node 1)
	maximum = 0.018 (at node 9)
Accepted packet rate average = 0.009375
	minimum = 0 (at node 0)
	maximum = 0.15 (at node 12)
Injected flit rate average = 0.009625
	minimum = 0.004 (at node 1)
	maximum = 0.018 (at node 9)
Accepted flit rate average= 0.009375
	minimum = 0 (at node 0)
	maximum = 0.15 (at node 12)
Injected packet length average = 1
Accepted packet length average = 1
Total in-flight flits = 4 (0 measured)
latency change    = 0.148457
throughput change = 0.06
Warmed up ...Time used is 1500 cycles
Class 0:
Packet latency average = 23.506
	minimum = 7
	maximum = 47
Network latency average = 23.506
	minimum = 7
	maximum = 47
Slowest packet = 1007
Flit latency average = 23.6437
	minimum = 7
	maximum = 47
Slowest flit = 1007
Fragmentation average = 0
	minimum = 0
	maximum = 0
Injected packet rate average = 0.010875
	minimum = 0.004 (at node 6)
	maximum = 0.016 (at node 5)
Accepted packet rate average = 0.010875
	minimum = 0 (at node 0)
	maximum = 0.174 (at node 12)
Injected flit rate average = 0.010875
	minimum = 0.004 (at node 6)
	maximum = 0.016 (at node 5)
Accepted flit rate average= 0.010875
	minimum = 0 (at node 0)
	maximum = 0.174 (at node 12)
Injected packet length average = 1
Accepted packet length average = 1
Total in-flight flits = 4 (4 measured)
latency change    = 0.0788177
throughput change = 0.137931
Class 0:
Packet latency average = 23.9059
	minimum = 7
	maximum = 47
Network latency average = 23.9059
	minimum = 7
	maximum = 47
Slowest packet = 1007
Flit latency average = 23.9655
	minimum = 7
	maximum = 47
Slowest flit = 1007
Fragmentation average = 0
	minimum = 0
	maximum = 0
Injected packet rate average = 0.0109375
	minimum = 0.007 (at node 6)
	maximum = 0.015 (at node 5)
Accepted packet rate average = 0.010875
	minimum = 0 (at node 0)
	maximum = 0.174 (at node 12)
Injected flit rate average = 0.0109375
	minimum = 0.007 (at node 6)
	maximum = 0.015 (at node 5)
Accepted flit rate average= 0.010875
	minimum = 0 (at node 0)
	maximum = 0.174 (at node 12)
Injected packet length average = 1
Accepted packet length average = 1
Total in-flight flits = 5 (5 measured)
latency change    = 0.0167264
throughput change = 0
Class 0:
Packet latency average = 24.6071
	minimum = 7
	maximum = 68
Network latency average = 24.6071
	minimum = 7
	maximum = 68
Slowest packet = 1120
Flit latency average = 24.6367
	minimum = 7
	maximum = 68
Slowest flit = 1120
Fragmentation average = 0
	minimum = 0
	maximum = 0
Injected packet rate average = 0.01075
	minimum = 0.00866667 (at node 2)
	maximum = 0.0153333 (at node 5)
Accepted packet rate average = 0.0106667
	minimum = 0 (at node 0)
	maximum = 0.170667 (at node 12)
Injected flit rate average = 0.01075
	minimum = 0.00866667 (at node 2)
	maximum = 0.0153333 (at node 5)
Accepted flit rate average= 0.0106667
	minimum = 0 (at node 0)
	maximum = 0.170667 (at node 12)
Injected packet length average = 1
Accepted packet length average = 1
Total in-flight flits = 6 (6 measured)
latency change    = 0.0284982
throughput change = 0.0195312
Class 0:
Packet latency average = 24.7872
	minimum = 7
	maximum = 68
Network latency average = 24.7872
	minimum = 7
	maximum = 68
Slowest packet = 1120
Flit latency average = 24.8078
	minimum = 7
	maximum = 68
Slowest flit = 1120
Fragmentation average = 0
	minimum = 0
	maximum = 0
Injected packet rate average = 0.0104063
	minimum = 0.008 (at node 6)
	maximum = 0.015 (at node 3)
Accepted packet rate average = 0.0104063
	minimum = 0 (at node 0)
	maximum = 0.1665 (at node 12)
Injected flit rate average = 0.0104063
	minimum = 0.008 (at node 6)
	maximum = 0.015 (at node 3)
Accepted flit rate average= 0.0104063
	minimum = 0 (at node 0)
	maximum = 0.1665 (at node 12)
Injected packet length average = 1
Accepted packet length average = 1
Total in-flight flits = 4 (4 measured)
latency change    = 0.00726548
throughput change = 0.025025
Draining all recorded packets ...
Draining remaining packets ...
Time taken is 3518 cycles
Class 0:
Packet latency average = 24.5974
	minimum = 7
	maximum = 51
Network latency average = 24.5974
	minimum = 7
	maximum = 51
Slowest packet = 1342
Flit latency average = 24.5974
	minimum = 7
	maximum = 51
Slowest flit = 1342
Fragmentation average = 0
	minimum = 0
	maximum = 0
Injected packet rate average = 0.009875
	minimum = 0.002 (at node 11)
	maximum = 0.014 (at node 1)
Accepted packet rate average = 0.009625
	minimum = 0 (at node 0)
	maximum = 0.154 (at node 12)
Injected flit rate average = 0.009875
	minimum = 0.002 (at node 11)
	maximum = 0.014 (at node 1)
Accepted flit rate average= 0.009625
	minimum = 0 (at node 0)
	maximum = 0.154 (at node 12)
Injected packet length average = 1
Accepted packet length average = 1
Total in-flight flits = 2 (0 measured)
latency change    = 1
throughput change = 1
Class 0:
Packet latency average = 23.9756
	minimum = 7
	maximum = 52
Network latency average = 23.9756
	minimum = 7
	maximum = 52
Slowest packet = 1413
Flit latency average = 23.9756
	minimum = 7
	maximum = 52
Slowest flit = 1413
Fragmentation average = 0
	minimum = 0
	maximum = 0
Injected packet rate average = 0.0105625
	minimum = 0.006 (at node 5)
	maximum = 0.015 (at node 15)
Accepted packet rate average = 0.01025
	minimum = 0 (at node 0)
	maximum = 0.164 (at node 12)
Injected flit rate average = 0.0105625
	minimum = 0.006 (at node 5)
	maximum = 0.015 (at node 15)
Accepted flit rate average= 0.01025
	minimum = 0 (at node 0)
	maximum = 0.164 (at node 12)
Injected packet length average = 1
Accepted packet length average = 1
Total in-flight flits = 5 (0 measured)
latency change    = 0.0259344
throughput change = 0.0609756
Class 0:
Packet latency average = 24.6702
	minimum = 7
	maximum = 70
Network latency average = 24.6702
	minimum = 7
	maximum = 70
Slowest packet = 1492
Flit latency average = 24.6702
	minimum = 7
	maximum = 70
Slowest flit = 1492
Fragmentation average = 0
	minimum = 0
	maximum = 0
Injected packet rate average = 0.0115
	minimum = 0 (at node 7)
	maximum = 0.022 (at node 0)
Accepted packet rate average = 0.01175
	minimum = 0 (at node 0)
	maximum = 0.188 (at node 12)
Injected flit rate average = 0.0115
	minimum = 0 (at node 7)
	maximum = 0.022 (at node 0)
Accepted flit rate average= 0.01175
	minimum = 0 (at node 0)
	maximum = 0.188 (at node 12)
Injected packet length average = 1
Accepted packet length average = 1
Total in-flight flits = 3 (0 measured)
latency change    = 0.0281555
throughput change = 0.12766
Warmed up ...Time used is 1500 cycles
Class 0:
Packet latency average = 28.1758
	minimum = 7
	maximum = 117
Network latency average = 28.1758
	minimum = 7
	maximum = 117
Slowest packet = 1606
Flit latency average = 28.2872
	minimum = 7
	maximum = 117
Slowest flit = 1606
Fragmentation average = 0
	minimum = 0
	maximum = 0
Injected packet rate average = 0.01175
	minimum = 0.004 (at node 1)
	maximum = 0.022 (at node 0)
Accepted packet rate average = 0.01175
	minimum = 0 (at node 0)
	maximum = 0.188 (at node 12)
Injected flit rate average = 0.01175
	minimum = 0.004 (at node 1)
	maximum = 0.022 (at node 0)
Accepted flit rate average= 0.01175
	minimum = 0 (at node 0)
	maximum = 0.188 (at node 12)
Injected packet length average = 1
Accepted packet length average = 1
Total in-flight flits = 3 (3 measured)
latency change    = 0.124419
throughput change = 0
Class 0:
Packet latency average = 25.3218
	minimum = 7
	maximum = 117
Network latency average = 25.3218
	minimum = 7
	maximum = 117
Slowest packet = 1606
Flit latency average = 25.4294
	minimum = 7
	maximum = 117
Slowest flit = 1606
Fragmentation average = 0
	minimum = 0
	maximum = 0
Injected packet rate average = 0.011375
	minimum = 0.005 (at node 3)
	maximum = 0.019 (at node 14)
Accepted packet rate average = 0.0110625
	minimum = 0 (at node 0)
	maximum = 0.177 (at node 12)
Injected flit rate average = 0.011375
	minimum = 0.005 (at node 3)
	maximum = 0.019 (at node 14)
Accepted flit rate average= 0.0110625
	minimum = 0 (at node 0)
	maximum = 0.177 (at node 12)
Injected packet length average = 1
Accepted packet length average = 1
Total in-flight flits = 8 (8 measured)
latency change    = 0.112708
throughput change = 0.0621469
Class 0:
Packet latency average = 25.4211
	minimum = 7
	maximum = 117
Network latency average = 25.4211
	minimum = 7
	maximum = 117
Slowest packet = 1606
Flit latency average = 25.4907
	minimum = 7
	maximum = 117
Slowest flit = 1606
Fragmentation average = 0
	minimum = 0
	maximum = 0
Injected packet rate average = 0.011375
	minimum = 0.00466667 (at node 1)
	maximum = 0.018 (at node 6)
Accepted packet rate average = 0.0112083
	minimum = 0 (at node 0)
	maximum = 0.179333 (at node 12)
Injected flit rate average = 0.011375
	minimum = 0.00466667 (at node 1)
	maximum = 0.018 (at node 6)
Accepted flit rate average= 0.0112083
	minimum = 0 (at node 0)
	maximum = 0.179333 (at node 12)
Injected packet length average = 1
Accepted packet length average = 1
Total in-flight flits = 7 (7 measured)
latency change    = 0.00390281
throughput change = 0.0130112
Class 0:
Packet latency average = 25.338
	minimum = 7
	maximum = 117
Network latency average = 25.338
	minimum = 7
	maximum = 117
Slowest packet = 1606
Flit latency average = 25.3906
	minimum = 7
	maximum = 117
Slowest flit = 1606
Fragmentation average = 0
	minimum = 0
	maximum = 0
Injected packet rate average = 0.0113125
	minimum = 0.0065 (at node 9)
	maximum = 0.0155 (at node 6)
Accepted packet rate average = 0.0112812
	minimum = 0 (at node 0)
	maximum = 0.1805 (at node 12)
Injected flit rate average = 0.0113125
	minimum = 0.0065 (at node 9)
	maximum = 0.0155 (at node 6)
Accepted flit rate average= 0.0112812
	minimum = 0 (at node 0)
	maximum = 0.1805 (at node 12)
Injected packet length average = 1
Accepted packet length average = 1
Total in-flight flits = 4 (4 measured)
latency change    = 0.00327823
throughput change = 0.00646353
Class 0:
Packet latency average = 25.6787
	minimum = 7
	maximum = 117
Network latency average = 25.6787
	minimum = 7
	maximum = 117
Slowest packet = 1606
Flit latency average = 25.7191
	minimum = 7
	maximum = 117
Slowest flit = 1606
Fragmentation average = 0
	minimum = 0
	maximum = 0
Injected packet rate average = 0.0111
	minimum = 0.0056 (at node 9)
	maximum = 0.0144 (at node 6)
Accepted packet rate average = 0.011125
	minimum = 0 (at node 0)
	maximum = 0.178 (at node 12)
Injected flit rate average = 0.0111
	minimum = 0.0056 (at node 9)
	maximum = 0.0144 (at node 6)
Accepted flit rate average= 0.011125
	minimum = 0 (at node 0)
	maximum = 0.178 (at node 12)
Injected packet length average = 1
Accepted packet length average = 1
Total in-flight flits = 2 (2 measured)
latency change    = 0.0132695
throughput change = 0.0140449
Draining all recorded packets ...
Draining remaining packets ...
Time taken is 4052 cycles
Class 0:
Packet latency average = 24.0282
	minimum = 7
	maximum = 43
Network latency average = 24.0282
	minimum = 7
	maximum = 43
Slowest packet = 2024
Flit latency average = 24.0282
	minimum = 7
	maximum = 43
Slowest flit = 2024
Fragmentation average = 0
	minimum = 0
	maximum = 0
Injected packet rate average = 0.009125
	minimum = 0.002 (at node 10)
	maximum = 0.012 (at node 0)
Accepted packet rate average = 0.008875
	minimum = 0 (at node 0)
	maximum = 0.142 (at node 12)
Injected flit rate average = 0.009125
	minimum = 0.002 (at node 10)
	maximum = 0.012 (at node 0)
Accepted flit rate average= 0.008875
	minimum = 0 (at node 0)
	maximum = 0.142 (at node 12)
Injected packet length average = 1
Accepted packet length average = 1
Total in-flight flits = 2 (0 measured)
latency change    = 1
throughput change = 1
Class 0:
Packet latency average = 23.0493
	minimum = 7
	maximum = 43
Network latency average = 23.0493
	minimum = 7
	maximum = 43
Slowest packet = 2024
Flit latency average = 23.0493
	minimum = 7
	maximum = 43
Slowest flit = 2024
Fragmentation average = 0
	minimum = 0
	maximum = 0
Injected packet rate average = 0.0091875
	minimum = 0.003 (at node 10)
	maximum = 0.014 (at node 0)
Accepted packet rate average = 0.008875
	minimum = 0 (at node 0)
	maximum = 0.142 (at node 12)
Injected flit rate average = 0.0091875
	minimum = 0.003 (at node 10)
	maximum = 0.014 (at node 0)
Accepted flit rate average= 0.008875
	minimum = 0 (at node 0)
	maximum = 0.142 (at node 12)
Injected packet length average = 1
Accepted packet length average = 1
Total in-flight flits = 5 (0 measured)
latency change    = 0.0424687
throughput change = 0
Class 0:
Packet latency average = 23.4783
	minimum = 7
	maximum = 50
Network latency average = 23.4783
	minimum = 7
	maximum = 50
Slowest packet = 2175
Flit latency average = 23.4783
	minimum = 7
	maximum = 50
Slowest flit = 2175
Fragmentation average = 0
	minimum = 0
	maximum = 0
Injected packet rate average = 0.011125
	minimum = 0.004 (at node 6)
	maximum = 0.022 (at node 14)
Accepted packet rate average = 0.0115
	minimum = 0 (at node 0)
	maximum = 0.184 (at node 12)
Injected flit rate average = 0.011125
	minimum = 0.004 (at node 6)
	maximum = 0.022 (at node 14)
Accepted flit rate average= 0.0115
	minimum = 0 (at node 0)
	maximum = 0.184 (at node 12)
Injected packet length average = 1
Accepted packet length average = 1
Total in-flight flits = 2 (0 measured)
latency change    = 0.0182707
throughput change = 0.228261
Warmed up ...Time used is 1500 cycles
Class 0:
Packet latency average = 23.7867
	minimum = 7
	maximum = 53
Network latency average = 23.7867
	minimum = 7
	maximum = 53
Slowest packet = 2285
Flit latency average = 23.9351
	minimum = 7
	maximum = 53
Slowest flit = 2285
Fragmentation average = 0
	minimum = 0
	maximum = 0
Injected packet rate average = 0.00975
	minimum = 0.004 (at node 8)
	maximum = 0.016 (at node 4)
Accepted packet rate average = 0.009625
	minimum = 0 (at node 0)
	maximum = 0.154 (at node 12)
Injected flit rate average = 0.00975
	minimum = 0.004 (at node 8)
	maximum = 0.016 (at node 4)
Accepted flit rate average= 0.009625
	minimum = 0 (at node 0)
	maximum = 0.154 (at node 12)
Injected packet length average = 1
Accepted packet length average = 1
Total in-flight flits = 3 (3 measured)
latency change    = 0.0129655
throughput change = 0.194805
Class 0:
Packet latency average = 23.7712
	minimum = 7
	maximum = 53
Network latency average = 23.7712
	minimum = 7
	maximum = 53
Slowest packet = 2285
Flit latency average = 23.8452
	minimum = 7
	maximum = 53
Slowest flit = 2285
Fragmentation average = 0
	minimum = 0
	maximum = 0
Injected packet rate average = 0.009625
	minimum = 0.005 (at node 3)
	maximum = 0.015 (at node 5)
Accepted packet rate average = 0.0096875
	minimum = 0 (at node 0)
	maximum = 0.155 (at node 12)
Injected flit rate average = 0.009625
	minimum = 0.005 (at node 3)
	maximum = 0.015 (at node 5)
Accepted flit rate average= 0.0096875
	minimum = 0 (at node 0)
	maximum = 0.155 (at node 12)
Injected packet length average = 1
Accepted packet length average = 1
Total in-flight flits = 1 (1 measured)
latency change    = 0.000648886
throughput change = 0.00645161
Class 0:
Packet latency average = 24.355
	minimum = 7
	maximum = 53
Network latency average = 24.355
	minimum = 7
	maximum = 53
Slowest packet = 2285
Flit latency average = 24.3991
	minimum = 7
	maximum = 53
Slowest flit = 2285
Fragmentation average = 0
	minimum = 0
	maximum = 0
Injected packet rate average = 0.00970833
	minimum = 0.006 (at node 3)
	maximum = 0.0126667 (at node 5)
Accepted packet rate average = 0.00970833
	minimum = 0 (at node 0)
	maximum = 0.155333 (at node 12)
Injected flit rate average = 0.00970833
	minimum = 0.006 (at node 3)
	maximum = 0.0126667 (at node 5)
Accepted flit rate average= 0.00970833
	minimum = 0 (at node 0)
	maximum = 0.155333 (at node 12)
Injected packet length average = 1
Accepted packet length average = 1
Total in-flight flits = 2 (2 measured)
latency change    = 0.0239679
throughput change = 0.00214592
Class 0:
Packet latency average = 24.4483
	minimum = 7
	maximum = 57
Network latency average = 24.4483
	minimum = 7
	maximum = 57
Slowest packet = 2533
Flit latency average = 24.4798
	minimum = 7
	maximum = 57
Slowest flit = 2533
Fragmentation average = 0
	minimum = 0
	maximum = 0
Injected packet rate average = 0.0101875
	minimum = 0.0065 (at node 3)
	maximum = 0.012 (at node 1)
Accepted packet rate average = 0.0100313
	minimum = 0 (at node 0)
	maximum = 0.1605 (at node 12)
Injected flit rate average = 0.0101875
	minimum = 0.0065 (at node 3)
	maximum = 0.012 (at node 1)
Accepted flit rate average= 0.0100313
	minimum = 0 (at node 0)
	maximum = 0.1605 (at node 12)
Injected packet length average = 1
Accepted packet length average = 1
Total in-flight flits = 7 (7 measured)
latency change    = 0.00381612
throughput change = 0.0321911
Draining all recorded packets ...
Draining remaining packets ...
Time taken is 3554 cycles
Class 0:
Packet latency average = 24.5542
	minimum = 7
	maximum = 49
Network latency average = 24.5542
	minimum = 7
	maximum = 49
Slowest packet = 2634
Flit latency average = 24.5542
	minimum = 7
	maximum = 49
Slowest flit = 2634
Fragmentation average = 0
	minimum = 0
	maximum = 0
Injected packet rate average = 0.0105
	minimum = 0.006 (at node 2)
	maximum = 0.018 (at node 11)
Accepted packet rate average = 0.010375
	minimum = 0 (at node 0)
	maximum = 0.166 (at node 12)
Injected flit rate average = 0.0105
	minimum = 0.006 (at node 2)
	maximum = 0.018 (at node 11)
Accepted flit rate average= 0.010375
	minimum = 0 (at node 0)
	maximum = 0.166 (at node 12)
Injected packet length average = 1
Accepted packet length average = 1
Total in-flight flits = 1 (0 measured)
latency change    = 1
throughput change = 1
Class 0:
Packet latency average = 23.3865
	minimum = 7
	maximum = 49
Network latency average = 23.3865
	minimum = 7
	maximum = 49
Slowest packet = 2634
Flit latency average = 23.3865
	minimum = 7
	maximum = 49
Slowest flit = 2634
Fragmentation average = 0
	minimum = 0
	maximum = 0
Injected packet rate average = 0.0103125
	minimum = 0.005 (at node 7)
	maximum = 0.016 (at node 3)
Accepted packet rate average = 0.0101875
	minimum = 0 (at node 0)
	maximum = 0.163 (at node 12)
Injected flit rate average = 0.0103125
	minimum = 0.005 (at node 7)
	maximum = 0.016 (at node 3)
Accepted flit rate average= 0.0101875
	minimum = 0 (at node 0)
	maximum = 0.163 (at node 12)
Injected packet length average = 1
Accepted packet length average = 1
Total in-flight flits = 2 (0 measured)
latency change    = 0.0499311
throughput change = 0.0184049
Class 0:
Packet latency average = 21.7692
	minimum = 7
	maximum = 40
Network latency average = 21.7692
	minimum = 7
	maximum = 40
Slowest packet = 2759
Flit latency average = 21.7692
	minimum = 7
	maximum = 40
Slowest flit = 2759
Fragmentation average = 0
	minimum = 0
	maximum = 0
Injected packet rate average = 0.008625
	minimum = 0 (at node 7)
	maximum = 0.016 (at node 0)
Accepted packet rate average = 0.008125
	minimum = 0 (at node 0)
	maximum = 0.13 (at node 12)
Injected flit rate average = 0.008625
	minimum = 0 (at node 7)
	maximum = 0.016 (at node 0)
Accepted flit rate average= 0.008125
	minimum = 0 (at node 0)
	maximum = 0.13 (at node 12)
Injected packet length average = 1
Accepted packet length average = 1
Total in-flight flits = 6 (0 measured)
latency change    = 0.0742917
throughput change = 0.253846
Warmed up ...Time used is 1500 cycles
Class 0:
Packet latency average = 22.5735
	minimum = 7
	maximum = 39
Network latency average = 22.5735
	minimum = 7
	maximum = 39
Slowest packet = 2822
Flit latency average = 23.3514
	minimum = 7
	maximum = 42
Slowest flit = 2790
Fragmentation average = 0
	minimum = 0
	maximum = 0
Injected packet rate average = 0.00875
	minimum = 0.002 (at node 8)
	maximum = 0.018 (at node 6)
Accepted packet rate average = 0.00925
	minimum = 0 (at node 0)
	maximum = 0.148 (at node 12)
Injected flit rate average = 0.00875
	minimum = 0.002 (at node 8)
	maximum = 0.018 (at node 6)
Accepted flit rate average= 0.00925
	minimum = 0 (at node 0)
	maximum = 0.148 (at node 12)
Injected packet length average = 1
Accepted packet length average = 1
Total in-flight flits = 2 (2 measured)
latency change    = 0.0356302
throughput change = 0.121622
Class 0:
Packet latency average = 23.2483
	minimum = 7
	maximum = 42
Network latency average = 23.2483
	minimum = 7
	maximum = 42
Slowest packet = 2893
Flit latency average = 23.6026
	minimum = 7
	maximum = 42
Slowest flit = 2790
Fragmentation average = 0
	minimum = 0
	maximum = 0
Injected packet rate average = 0.00925
	minimum = 0.005 (at node 3)
	maximum = 0.013 (at node 4)
Accepted packet rate average = 0.0094375
	minimum = 0 (at node 0)
	maximum = 0.151 (at node 12)
Injected flit rate average = 0.00925
	minimum = 0.005 (at node 3)
	maximum = 0.013 (at node 4)
Accepted flit rate average= 0.0094375
	minimum = 0 (at node 0)
	maximum = 0.151 (at node 12)
Injected packet length average = 1
Accepted packet length average = 1
Total in-flight flits = 3 (3 measured)
latency change    = 0.0290235
throughput change = 0.0198675
Class 0:
Packet latency average = 23.2607
	minimum = 7
	maximum = 42
Network latency average = 23.2607
	minimum = 7
	maximum = 42
Slowest packet = 2893
Flit latency average = 23.5069
	minimum = 7
	maximum = 42
Slowest flit = 2790
Fragmentation average = 0
	minimum = 0
	maximum = 0
Injected packet rate average = 0.00904167
	minimum = 0.006 (at node 3)
	maximum = 0.012 (at node 2)
Accepted packet rate average = 0.00904167
	minimum = 0 (at node 0)
	maximum = 0.144667 (at node 12)
Injected flit rate average = 0.00904167
	minimum = 0.006 (at node 3)
	maximum = 0.012 (at node 2)
Accepted flit rate average= 0.00904167
	minimum = 0 (at node 0)
	maximum = 0.144667 (at node 12)
Injected packet length average = 1
Accepted packet length average = 1
Total in-flight flits = 6 (6 measured)
latency change    = 0.000532558
throughput change = 0.0437788
Class 0:
Packet latency average = 23.1151
	minimum = 7
	maximum = 50
Network latency average = 23.1151
	minimum = 7
	maximum = 50
Slowest packet = 3005
Flit latency average = 23.3063
	minimum = 7
	maximum = 50
Slowest flit = 3005
Fragmentation average = 0
	minimum = 0
	maximum = 0
Injected packet rate average = 0.0088125
	minimum = 0.006 (at node 3)
	maximum = 0.0115 (at node 2)
Accepted packet rate average = 0.008875
	minimum = 0 (at node 0)
	maximum = 0.142 (at node 12)
Injected flit rate average = 0.0088125
	minimum = 0.006 (at node 3)
	maximum = 0.0115 (at node 2)
Accepted flit rate average= 0.008875
	minimum = 0 (at node 0)
	maximum = 0.142 (at node 12)
Injected packet length average = 1
Accepted packet length average = 1
Total in-flight flits = 4 (4 measured)
latency change    = 0.00629699
throughput change = 0.0187793
Draining all recorded packets ...
Draining remaining packets ...
Time taken is 3565 cycles
Class 0:
Packet latency average = 22.7468
	minimum = 7
	maximum = 47
Network latency average = 22.7468
	minimum = 7
	maximum = 47
Slowest packet = 3151
Flit latency average = 22.7468
	minimum = 7
	maximum = 47
Slowest flit = 3151
Fragmentation average = 0
	minimum = 0
	maximum = 0
Injected packet rate average = 0.0105
	minimum = 0.002 (at node 4)
	maximum = 0.026 (at node 12)
Accepted packet rate average = 0.009875
	minimum = 0 (at node 0)
	maximum = 0.158 (at node 12)
Injected flit rate average = 0.0105
	minimum = 0.002 (at node 4)
	maximum = 0.026 (at node 12)
Accepted flit rate average= 0.009875
	minimum = 0 (at node 0)
	maximum = 0.158 (at node 12)
Injected packet length average = 1
Accepted packet length average = 1
Total in-flight flits = 5 (0 measured)
latency change    = 1
throughput change = 1
Class 0:
Packet latency average = 22.5064
	minimum = 7
	maximum = 47
Network latency average = 22.5064
	minimum = 7
	maximum = 47
Slowest packet = 3151
Flit latency average = 22.5064
	minimum = 7
	maximum = 47
Slowest flit = 3151
Fragmentation average = 0
	minimum = 0
	maximum = 0
Injected packet rate average = 0.009875
	minimum = 0.005 (at node 4)
	maximum = 0.019 (at node 12)
Accepted packet rate average = 0.00975
	minimum = 0 (at node 0)
	maximum = 0.156 (at node 12)
Injected flit rate average = 0.009875
	minimum = 0.005 (at node 4)
	maximum = 0.019 (at node 12)
Accepted flit rate average= 0.00975
	minimum = 0 (at node 0)
	maximum = 0.156 (at node 12)
Injected packet length average = 1
Accepted packet length average = 1
Total in-flight flits = 2 (0 measured)
latency change    = 0.0106825
throughput change = 0.0128205
Class 0:
Packet latency average = 24.8021
	minimum = 7
	maximum = 47
Network latency average = 24.8021
	minimum = 7
	maximum = 47
Slowest packet = 3255
Flit latency average = 24.8021
	minimum = 7
	maximum = 47
Slowest flit = 3255
Fragmentation average = 0
	minimum = 0
	maximum = 0
Injected packet rate average = 0.012
	minimum = 0.006 (at node 9)
	maximum = 0.022 (at node 15)
Accepted packet rate average = 0.012
	minimum = 0 (at node 0)
	maximum = 0.192 (at node 12)
Injected flit rate average = 0.012
	minimum = 0.006 (at node 9)
	maximum = 0.022 (at node 15)
Accepted flit rate average= 0.012
	minimum = 0 (at node 0)
	maximum = 0.192 (at node 12)
Injected packet length average = 1
Accepted packet length average = 1
Total in-flight flits = 2 (0 measured)
latency change    = 0.0925597
throughput change = 0.1875
Warmed up ...Time used is 1500 cycles
Class 0:
Packet latency average = 27.2805
	minimum = 7
	maximum = 56
Network latency average = 27.2805
	minimum = 7
	maximum = 56
Slowest packet = 3350
Flit latency average = 27.3333
	minimum = 7
	maximum = 56
Slowest flit = 3350
Fragmentation average = 0
	minimum = 0
	maximum = 0
Injected packet rate average = 0.010625
	minimum = 0.004 (at node 2)
	maximum = 0.022 (at node 3)
Accepted packet rate average = 0.0105
	minimum = 0 (at node 0)
	maximum = 0.168 (at node 12)
Injected flit rate average = 0.010625
	minimum = 0.004 (at node 2)
	maximum = 0.022 (at node 3)
Accepted flit rate average= 0.0105
	minimum = 0 (at node 0)
	maximum = 0.168 (at node 12)
Injected packet length average = 1
Accepted packet length average = 1
Total in-flight flits = 3 (3 measured)
latency change    = 0.090849
throughput change = 0.142857
Class 0:
Packet latency average = 25.7073
	minimum = 7
	maximum = 56
Network latency average = 25.7073
	minimum = 7
	maximum = 56
Slowest packet = 3350
Flit latency average = 25.753
	minimum = 7
	maximum = 56
Slowest flit = 3350
Fragmentation average = 0
	minimum = 0
	maximum = 0
Injected packet rate average = 0.010625
	minimum = 0.007 (at node 2)
	maximum = 0.016 (at node 3)
Accepted packet rate average = 0.010375
	minimum = 0 (at node 0)
	maximum = 0.166 (at node 12)
Injected flit rate average = 0.010625
	minimum = 0.007 (at node 2)
	maximum = 0.016 (at node 3)
Accepted flit rate average= 0.010375
	minimum = 0 (at node 0)
	maximum = 0.166 (at node 12)
Injected packet length average = 1
Accepted packet length average = 1
Total in-flight flits = 6 (6 measured)
latency change    = 0.0611954
throughput change = 0.0120482
Class 0:
Packet latency average = 25.622
	minimum = 7
	maximum = 56
Network latency average = 25.622
	minimum = 7
	maximum = 56
Slowest packet = 3350
Flit latency average = 25.6532
	minimum = 7
	maximum = 56
Slowest flit = 3350
Fragmentation average = 0
	minimum = 0
	maximum = 0
Injected packet rate average = 0.010375
	minimum = 0.00666667 (at node 12)
	maximum = 0.0133333 (at node 3)
Accepted packet rate average = 0.0103333
	minimum = 0 (at node 0)
	maximum = 0.165333 (at node 12)
Injected flit rate average = 0.010375
	minimum = 0.00666667 (at node 12)
	maximum = 0.0133333 (at node 3)
Accepted flit rate average= 0.0103333
	minimum = 0 (at node 0)
	maximum = 0.165333 (at node 12)
Injected packet length average = 1
Accepted packet length average = 1
Total in-flight flits = 3 (3 measured)
latency change    = 0.00333175
throughput change = 0.00403226
Class 0:
Packet latency average = 25.2805
	minimum = 7
	maximum = 56
Network latency average = 25.2805
	minimum = 7
	maximum = 56
Slowest packet = 3350
Flit latency average = 25.3061
	minimum = 7
	maximum = 56
Slowest flit = 3350
Fragmentation average = 0
	minimum = 0
	maximum = 0
Injected packet rate average = 0.0103125
	minimum = 0.0055 (at node 10)
	maximum = 0.014 (at node 7)
Accepted packet rate average = 0.0103125
	minimum = 0 (at node 0)
	maximum = 0.165 (at node 12)
Injected flit rate average = 0.0103125
	minimum = 0.0055 (at node 10)
	maximum = 0.014 (at node 7)
Accepted flit rate average= 0.0103125
	minimum = 0 (at node 0)
	maximum = 0.165 (at node 12)
Injected packet length average = 1
Accepted packet length average = 1
Total in-flight flits = 2 (2 measured)
latency change    = 0.013507
throughput change = 0.0020202
Class 0:
Packet latency average = 24.618
	minimum = 7
	maximum = 56
Network latency average = 24.618
	minimum = 7
	maximum = 56
Slowest packet = 3350
Flit latency average = 24.6416
	minimum = 7
	maximum = 56
Slowest flit = 3350
Fragmentation average = 0
	minimum = 0
	maximum = 0
Injected packet rate average = 0.010275
	minimum = 0.0064 (at node 2)
	maximum = 0.0136 (at node 7)
Accepted packet rate average = 0.010325
	minimum = 0 (at node 0)
	maximum = 0.1652 (at node 12)
Injected flit rate average = 0.010275
	minimum = 0.0064 (at node 2)
	maximum = 0.0136 (at node 7)
Accepted flit rate average= 0.010325
	minimum = 0 (at node 0)
	maximum = 0.1652 (at node 12)
Injected packet length average = 1
Accepted packet length average = 1
Total in-flight flits = 0 (0 measured)
latency change    = 0.0269105
throughput change = 0.00121065
Draining all recorded packets ...
Draining remaining packets ...
Time taken is 4017 cycles
Class 0:
Packet latency average = 24.4177
	minimum = 7
	maximum = 55
Network latency average = 24.4177
	minimum = 7
	maximum = 55
Slowest packet = 3772
Flit latency average = 24.4177
	minimum = 7
	maximum = 55
Slowest flit = 3772
Fragmentation average = 0
	minimum = 0
	maximum = 0
Injected packet rate average = 0.01025
	minimum = 0.002 (at node 1)
	maximum = 0.016 (at node 8)
Accepted packet rate average = 0.009875
	minimum = 0 (at node 0)
	maximum = 0.158 (at node 12)
Injected flit rate average = 0.01025
	minimum = 0.002 (at node 1)
	maximum = 0.016 (at node 8)
Accepted flit rate average= 0.009875
	minimum = 0 (at node 0)
	maximum = 0.158 (at node 12)
Injected packet length average = 1
Accepted packet length average = 1
Total in-flight flits = 3 (0 measured)
latency change    = 1
throughput change = 1
Class 0:
Packet latency average = 22.7554
	minimum = 7
	maximum = 55
Network latency average = 22.7554
	minimum = 7
	maximum = 55
Slowest packet = 3772
Flit latency average = 22.7554
	minimum = 7
	maximum = 55
Slowest flit = 3772
Fragmentation average = 0
	minimum = 0
	maximum = 0
Injected packet rate average = 0.0089375
	minimum = 0.004 (at node 0)
	maximum = 0.016 (at node 8)
Accepted packet rate average = 0.0086875
	minimum = 0 (at node 0)
	maximum = 0.139 (at node 12)
Injected flit rate average = 0.0089375
	minimum = 0.004 (at node 0)
	maximum = 0.016 (at node 8)
Accepted flit rate average= 0.0086875
	minimum = 0 (at node 0)
	maximum = 0.139 (at node 12)
Injected packet length average = 1
Accepted packet length average = 1
Total in-flight flits = 4 (0 measured)
latency change    = 0.0730519
throughput change = 0.136691
Class 0:
Packet latency average = 24.3284
	minimum = 7
	maximum = 52
Network latency average = 24.3284
	minimum = 7
	maximum = 52
Slowest packet = 3912
Flit latency average = 24.3284
	minimum = 7
	maximum = 52
Slowest flit = 3912
Fragmentation average = 0
	minimum = 0
	maximum = 0
Injected packet rate average = 0.0085
	minimum = 0.002 (at node 14)
	maximum = 0.016 (at node 11)
Accepted packet rate average = 0.008375
	minimum = 0 (at node 0)
	maximum = 0.134 (at node 12)
Injected flit rate average = 0.0085
	minimum = 0.002 (at node 14)
	maximum = 0.016 (at node 11)
Accepted flit rate average= 0.008375
	minimum = 0 (at node 0)
	maximum = 0.134 (at node 12)
Injected packet length average = 1
Accepted packet length average = 1
Total in-flight flits = 5 (0 measured)
latency change    = 0.0646555
throughput change = 0.0373134
Warmed up ...Time used is 1500 cycles
Class 0:
Packet latency average = 22.8933
	minimum = 7
	maximum = 53
Network latency average = 22.8933
	minimum = 7
	maximum = 53
Slowest packet = 3978
Flit latency average = 22.8375
	minimum = 7
	maximum = 53
Slowest flit = 3978
Fragmentation average = 0
	minimum = 0
	maximum = 0
Injected packet rate average = 0.01
	minimum = 0.004 (at node 4)
	maximum = 0.016 (at node 1)
Accepted packet rate average = 0.01
	minimum = 0 (at node 0)
	maximum = 0.16 (at node 12)
Injected flit rate average = 0.01
	minimum = 0.004 (at node 4)
	maximum = 0.016 (at node 1)
Accepted flit rate average= 0.01
	minimum = 0 (at node 0)
	maximum = 0.16 (at node 12)
Injected packet length average = 1
Accepted packet length average = 1
Total in-flight flits = 5 (5 measured)
latency change    = 0.0626831
throughput change = 0.1625
Class 0:
Packet latency average = 22.6026
	minimum = 7
	maximum = 53
Network latency average = 22.6026
	minimum = 7
	maximum = 53
Slowest packet = 3978
Flit latency average = 22.5833
	minimum = 7
	maximum = 53
Slowest flit = 3978
Fragmentation average = 0
	minimum = 0
	maximum = 0
Injected packet rate average = 0.0098125
	minimum = 0.002 (at node 5)
	maximum = 0.016 (at node 12)
Accepted packet rate average = 0.00975
	minimum = 0 (at node 0)
	maximum = 0.156 (at node 12)
Injected flit rate average = 0.0098125
	minimum = 0.002 (at node 5)
	maximum = 0.016 (at node 12)
Accepted flit rate average= 0.00975
	minimum = 0 (at node 0)
	maximum = 0.156 (at node 12)
Injected packet length average = 1
Accepted packet length average = 1
Total in-flight flits = 6 (6 measured)
latency change    = 0.0128606
throughput change = 0.025641
Class 0:
Packet latency average = 23.8417
	minimum = 7
	maximum = 62
Network latency average = 23.8417
	minimum = 7
	maximum = 62
Slowest packet = 4152
Flit latency average = 23.8041
	minimum = 7
	maximum = 62
Slowest flit = 4152
Fragmentation average = 0
	minimum = 0
	maximum = 0
Injected packet rate average = 0.0102083
	minimum = 0.00333333 (at node 5)
	maximum = 0.0126667 (at node 3)
Accepted packet rate average = 0.0102083
	minimum = 0 (at node 0)
	maximum = 0.163333 (at node 12)
Injected flit rate average = 0.0102083
	minimum = 0.00333333 (at node 5)
	maximum = 0.0126667 (at node 3)
Accepted flit rate average= 0.0102083
	minimum = 0 (at node 0)
	maximum = 0.163333 (at node 12)
Injected packet length average = 1
Accepted packet length average = 1
Total in-flight flits = 5 (5 measured)
latency change    = 0.0519686
throughput change = 0.044898
Class 0:
Packet latency average = 24.2239
	minimum = 7
	maximum = 62
Network latency average = 24.2239
	minimum = 7
	maximum = 62
Slowest packet = 4152
Flit latency average = 24.1903
	minimum = 7
	maximum = 62
Slowest flit = 4152
Fragmentation average = 0
	minimum = 0
	maximum = 0
Injected packet rate average = 0.0102188
	minimum = 0.004 (at node 5)
	maximum = 0.013 (at node 3)
Accepted packet rate average = 0.0103438
	minimum = 0 (at node 0)
	maximum = 0.1655 (at node 12)
Injected flit rate average = 0.0102188
	minimum = 0.004 (at node 5)
	maximum = 0.013 (at node 3)
Accepted flit rate average= 0.0103438
	minimum = 0 (at node 0)
	maximum = 0.1655 (at node 12)
Injected packet length average = 1
Accepted packet length average = 1
Total in-flight flits = 1 (1 measured)
latency change    = 0.0157803
throughput change = 0.0130916
Class 0:
Packet latency average = 24.2793
	minimum = 7
	maximum = 62
Network latency average = 24.2793
	minimum = 7
	maximum = 62
Slowest packet = 4152
Flit latency average = 24.2512
	minimum = 7
	maximum = 62
Slowest flit = 4152
Fragmentation average = 0
	minimum = 0
	maximum = 0
Injected packet rate average = 0.0102
	minimum = 0.0056 (at node 5)
	maximum = 0.0128 (at node 4)
Accepted packet rate average = 0.01015
	minimum = 0 (at node 0)
	maximum = 0.1624 (at node 12)
Injected flit rate average = 0.0102
	minimum = 0.0056 (at node 5)
	maximum = 0.0128 (at node 4)
Accepted flit rate average= 0.01015
	minimum = 0 (at node 0)
	maximum = 0.1624 (at node 12)
Injected packet length average = 1
Accepted packet length average = 1
Total in-flight flits = 7 (7 measured)
latency change    = 0.00228076
throughput change = 0.0190887
Class 0:
Packet latency average = 24.4789
	minimum = 7
	maximum = 62
Network latency average = 24.4789
	minimum = 7
	maximum = 62
Slowest packet = 4152
Flit latency average = 24.4542
	minimum = 7
	maximum = 62
Slowest flit = 4152
Fragmentation average = 0
	minimum = 0
	maximum = 0
Injected packet rate average = 0.0104167
	minimum = 0.006 (at node 5)
	maximum = 0.0126667 (at node 3)
Accepted packet rate average = 0.0104583
	minimum = 0 (at node 0)
	maximum = 0.167333 (at node 12)
Injected flit rate average = 0.0104167
	minimum = 0.006 (at node 5)
	maximum = 0.0126667 (at node 3)
Accepted flit rate average= 0.0104583
	minimum = 0 (at node 0)
	maximum = 0.167333 (at node 12)
Injected packet length average = 1
Accepted packet length average = 1
Total in-flight flits = 3 (3 measured)
latency change    = 0.00815281
throughput change = 0.0294821
Draining all recorded packets ...
Draining remaining packets ...
Time taken is 4534 cycles
Class 0:
Packet latency average = 24.5
	minimum = 7
	maximum = 46
Network latency average = 24.5
	minimum = 7
	maximum = 46
Slowest packet = 4505
Flit latency average = 24.5
	minimum = 7
	maximum = 46
Slowest flit = 4505
Fragmentation average = 0
	minimum = 0
	maximum = 0
Injected packet rate average = 0.01
	minimum = 0.002 (at node 7)
	maximum = 0.018 (at node 11)
Accepted packet rate average = 0.00975
	minimum = 0 (at node 0)
	maximum = 0.156 (at node 12)
Injected flit rate average = 0.01
	minimum = 0.002 (at node 7)
	maximum = 0.018 (at node 11)
Accepted flit rate average= 0.00975
	minimum = 0 (at node 0)
	maximum = 0.156 (at node 12)
Injected packet length average = 1
Accepted packet length average = 1
Total in-flight flits = 2 (0 measured)
latency change    = 1
throughput change = 1
Class 0:
Packet latency average = 24.1073
	minimum = 7
	maximum = 61
Network latency average = 24.1073
	minimum = 7
	maximum = 61
Slowest packet = 4548
Flit latency average = 24.1073
	minimum = 7
	maximum = 61
Slowest flit = 4548
Fragmentation average = 0
	minimum = 0
	maximum = 0
Injected packet rate average = 0.011375
	minimum = 0.004 (at node 7)
	maximum = 0.019 (at node 15)
Accepted packet rate average = 0.0110625
	minimum = 0 (at node 0)
	maximum = 0.177 (at node 12)
Injected flit rate average = 0.011375
	minimum = 0.004 (at node 7)
	maximum = 0.019 (at node 15)
Accepted flit rate average= 0.0110625
	minimum = 0 (at node 0)
	maximum = 0.177 (at node 12)
Injected packet length average = 1
Accepted packet length average = 1
Total in-flight flits = 5 (0 measured)
latency change    = 0.0162878
throughput change = 0.118644
Class 0:
Packet latency average = 25.3014
	minimum = 7
	maximum = 55
Network latency average = 25.3014
	minimum = 7
	maximum = 55
Slowest packet = 4655
Flit latency average = 25.3014
	minimum = 7
	maximum = 55
Slowest flit = 4655
Fragmentation average = 0
	minimum = 0
	maximum = 0
Injected packet rate average = 0.008875
	minimum = 0.002 (at node 15)
	maximum = 0.018 (at node 11)
Accepted packet rate average = 0.009125
	minimum = 0 (at node 0)
	maximum = 0.146 (at node 12)
Injected flit rate average = 0.008875
	minimum = 0.002 (at node 15)
	maximum = 0.018 (at node 11)
Accepted flit rate average= 0.009125
	minimum = 0 (at node 0)
	maximum = 0.146 (at node 12)
Injected packet length average = 1
Accepted packet length average = 1
Total in-flight flits = 3 (0 measured)
latency change    = 0.0471921
throughput change = 0.212329
Warmed up ...Time used is 1500 cycles
Class 0:
Packet latency average = 25.9487
	minimum = 7
	maximum = 69
Network latency average = 25.9487
	minimum = 7
	maximum = 69
Slowest packet = 4768
Flit latency average = 25.8025
	minimum = 7
	maximum = 69
Slowest flit = 4768
Fragmentation average = 0
	minimum = 0
	maximum = 0
Injected packet rate average = 0.01
	minimum = 0 (at node 13)
	maximum = 0.018 (at node 4)
Accepted packet rate average = 0.010125
	minimum = 0 (at node 0)
	maximum = 0.162 (at node 12)
Injected flit rate average = 0.01
	minimum = 0 (at node 13)
	maximum = 0.018 (at node 4)
Accepted flit rate average= 0.010125
	minimum = 0 (at node 0)
	maximum = 0.162 (at node 12)
Injected packet length average = 1
Accepted packet length average = 1
Total in-flight flits = 2 (2 measured)
latency change    = 0.0249472
throughput change = 0.0987654
Class 0:
Packet latency average = 25.9758
	minimum = 7
	maximum = 69
Network latency average = 25.9758
	minimum = 7
	maximum = 69
Slowest packet = 4768
Flit latency average = 25.9048
	minimum = 7
	maximum = 69
Slowest flit = 4768
Fragmentation average = 0
	minimum = 0
	maximum = 0
Injected packet rate average = 0.0105
	minimum = 0.003 (at node 13)
	maximum = 0.017 (at node 4)
Accepted packet rate average = 0.0105
	minimum = 0 (at node 0)
	maximum = 0.168 (at node 12)
Injected flit rate average = 0.0105
	minimum = 0.003 (at node 13)
	maximum = 0.017 (at node 4)
Accepted flit rate average= 0.0105
	minimum = 0 (at node 0)
	maximum = 0.168 (at node 12)
Injected packet length average = 1
Accepted packet length average = 1
Total in-flight flits = 3 (3 measured)
latency change    = 0.00104096
throughput change = 0.0357143
Class 0:
Packet latency average = 25.3418
	minimum = 7
	maximum = 69
Network latency average = 25.3418
	minimum = 7
	maximum = 69
Slowest packet = 4768
Flit latency average = 25.3
	minimum = 7
	maximum = 69
Slowest flit = 4768
Fragmentation average = 0
	minimum = 0
	maximum = 0
Injected packet rate average = 0.0100417
	minimum = 0.00533333 (at node 13)
	maximum = 0.014 (at node 8)
Accepted packet rate average = 0.01
	minimum = 0 (at node 0)
	maximum = 0.16 (at node 12)
Injected flit rate average = 0.0100417
	minimum = 0.00533333 (at node 13)
	maximum = 0.014 (at node 8)
Accepted flit rate average= 0.01
	minimum = 0 (at node 0)
	maximum = 0.16 (at node 12)
Injected packet length average = 1
Accepted packet length average = 1
Total in-flight flits = 4 (4 measured)
latency change    = 0.0250174
throughput change = 0.05
Class 0:
Packet latency average = 24.6799
	minimum = 7
	maximum = 69
Network latency average = 24.6799
	minimum = 7
	maximum = 69
Slowest packet = 4768
Flit latency average = 24.6556
	minimum = 7
	maximum = 69
Slowest flit = 4768
Fragmentation average = 0
	minimum = 0
	maximum = 0
Injected packet rate average = 0.0103125
	minimum = 0.0055 (at node 13)
	maximum = 0.0125 (at node 4)
Accepted packet rate average = 0.0103438
	minimum = 0 (at node 0)
	maximum = 0.1655 (at node 12)
Injected flit rate average = 0.0103125
	minimum = 0.0055 (at node 13)
	maximum = 0.0125 (at node 4)
Accepted flit rate average= 0.0103438
	minimum = 0 (at node 0)
	maximum = 0.1655 (at node 12)
Injected packet length average = 1
Accepted packet length average = 1
Total in-flight flits = 2 (2 measured)
latency change    = 0.0268192
throughput change = 0.0332326
Class 0:
Packet latency average = 24.1491
	minimum = 7
	maximum = 69
Network latency average = 24.1491
	minimum = 7
	maximum = 69
Slowest packet = 4768
Flit latency average = 24.1327
	minimum = 7
	maximum = 69
Slowest flit = 4768
Fragmentation average = 0
	minimum = 0
	maximum = 0
Injected packet rate average = 0.009775
	minimum = 0.0056 (at node 13)
	maximum = 0.0128 (at node 4)
Accepted packet rate average = 0.0098
	minimum = 0 (at node 0)
	maximum = 0.1568 (at node 12)
Injected flit rate average = 0.009775
	minimum = 0.0056 (at node 13)
	maximum = 0.0128 (at node 4)
Accepted flit rate average= 0.0098
	minimum = 0 (at node 0)
	maximum = 0.1568 (at node 12)
Injected packet length average = 1
Accepted packet length average = 1
Total in-flight flits = 2 (2 measured)
latency change    = 0.0219792
throughput change = 0.0554847
Class 0:
Packet latency average = 23.9811
	minimum = 7
	maximum = 69
Network latency average = 23.9811
	minimum = 7
	maximum = 69
Slowest packet = 4768
Flit latency average = 23.9688
	minimum = 7
	maximum = 69
Slowest flit = 4768
Fragmentation average = 0
	minimum = 0
	maximum = 0
Injected packet rate average = 0.01
	minimum = 0.00666667 (at node 0)
	maximum = 0.0126667 (at node 14)
Accepted packet rate average = 0.01
	minimum = 0 (at node 0)
	maximum = 0.16 (at node 12)
Injected flit rate average = 0.01
	minimum = 0.00666667 (at node 0)
	maximum = 0.0126667 (at node 14)
Accepted flit rate average= 0.01
	minimum = 0 (at node 0)
	maximum = 0.16 (at node 12)
Injected packet length average = 1
Accepted packet length average = 1
Total in-flight flits = 3 (3 measured)
latency change    = 0.00700418
throughput change = 0.02
Class 0:
Packet latency average = 24.1781
	minimum = 7
	maximum = 69
Network latency average = 24.1781
	minimum = 7
	maximum = 69
Slowest packet = 4768
Flit latency average = 24.1667
	minimum = 7
	maximum = 69
Slowest flit = 4768
Fragmentation average = 0
	minimum = 0
	maximum = 0
Injected packet rate average = 0.0101964
	minimum = 0.00657143 (at node 0)
	maximum = 0.0128571 (at node 14)
Accepted packet rate average = 0.0101786
	minimum = 0 (at node 0)
	maximum = 0.162857 (at node 12)
Injected flit rate average = 0.0101964
	minimum = 0.00657143 (at node 0)
	maximum = 0.0128571 (at node 14)
Accepted flit rate average= 0.0101786
	minimum = 0 (at node 0)
	maximum = 0.162857 (at node 12)
Injected packet length average = 1
Accepted packet length average = 1
Total in-flight flits = 4 (4 measured)
latency change    = 0.00814779
throughput change = 0.0175439
Draining all recorded packets ...
Draining remaining packets ...
Time taken is 5039 cycles
Class 0:
Packet latency average = 23.5342
	minimum = 7
	maximum = 42
Network latency average = 23.5342
	minimum = 7
	maximum = 42
Slowest packet = 5323
Flit latency average = 23.5342
	minimum = 7
	maximum = 42
Slowest flit = 5323
Fragmentation average = 0
	minimum = 0
	maximum = 0
Injected packet rate average = 0.01025
	minimum = 0.002 (at node 0)
	maximum = 0.018 (at node 1)
Accepted packet rate average = 0.009125
	minimum = 0 (at node 0)
	maximum = 0.146 (at node 12)
Injected flit rate average = 0.01025
	minimum = 0.002 (at node 0)
	maximum = 0.018 (at node 1)
Accepted flit rate average= 0.009125
	minimum = 0 (at node 0)
	maximum = 0.146 (at node 12)
Injected packet length average = 1
Accepted packet length average = 1
Total in-flight flits = 9 (0 measured)
latency change    = 1
throughput change = 1
Class 0:
Packet latency average = 25.1074
	minimum = 7
	maximum = 60
Network latency average = 25.1074
	minimum = 7
	maximum = 60
Slowest packet = 5358
Flit latency average = 25.1074
	minimum = 7
	maximum = 60
Slowest flit = 5358
Fragmentation average = 0
	minimum = 0
	maximum = 0
Injected packet rate average = 0.009375
	minimum = 0.005 (at node 9)
	maximum = 0.016 (at node 11)
Accepted packet rate average = 0.0093125
	minimum = 0 (at node 0)
	maximum = 0.149 (at node 12)
Injected flit rate average = 0.009375
	minimum = 0.005 (at node 9)
	maximum = 0.016 (at node 11)
Accepted flit rate average= 0.0093125
	minimum = 0 (at node 0)
	maximum = 0.149 (at node 12)
Injected packet length average = 1
Accepted packet length average = 1
Total in-flight flits = 1 (0 measured)
latency change    = 0.0626563
throughput change = 0.0201342
Class 0:
Packet latency average = 26.0988
	minimum = 7
	maximum = 54
Network latency average = 26.0988
	minimum = 7
	maximum = 54
Slowest packet = 5481
Flit latency average = 26.0988
	minimum = 7
	maximum = 54
Slowest flit = 5481
Fragmentation average = 0
	minimum = 0
	maximum = 0
Injected packet rate average = 0.01025
	minimum = 0.004 (at node 4)
	maximum = 0.022 (at node 11)
Accepted packet rate average = 0.010125
	minimum = 0 (at node 0)
	maximum = 0.162 (at node 12)
Injected flit rate average = 0.01025
	minimum = 0.004 (at node 4)
	maximum = 0.022 (at node 11)
Accepted flit rate average= 0.010125
	minimum = 0 (at node 0)
	maximum = 0.162 (at node 12)
Injected packet length average = 1
Accepted packet length average = 1
Total in-flight flits = 2 (0 measured)
latency change    = 0.0379858
throughput change = 0.0802469
Warmed up ...Time used is 1500 cycles
Class 0:
Packet latency average = 23.7681
	minimum = 7
	maximum = 43
Network latency average = 23.7681
	minimum = 7
	maximum = 43
Slowest packet = 5536
Flit latency average = 24.0141
	minimum = 7
	maximum = 43
Slowest flit = 5509
Fragmentation average = 0
	minimum = 0
	maximum = 0
Injected packet rate average = 0.009125
	minimum = 0.004 (at node 3)
	maximum = 0.016 (at node 7)
Accepted packet rate average = 0.008875
	minimum = 0 (at node 0)
	maximum = 0.142 (at node 12)
Injected flit rate average = 0.009125
	minimum = 0.004 (at node 3)
	maximum = 0.016 (at node 7)
Accepted flit rate average= 0.008875
	minimum = 0 (at node 0)
	maximum = 0.142 (at node 12)
Injected packet length average = 1
Accepted packet length average = 1
Total in-flight flits = 4 (4 measured)
latency change    = 0.0980578
throughput change = 0.140845
Class 0:
Packet latency average = 23.6013
	minimum = 7
	maximum = 50
Network latency average = 23.6013
	minimum = 7
	maximum = 50
Slowest packet = 5614
Flit latency average = 23.7161
	minimum = 7
	maximum = 50
Slowest flit = 5614
Fragmentation average = 0
	minimum = 0
	maximum = 0
Injected packet rate average = 0.009625
	minimum = 0.003 (at node 3)
	maximum = 0.018 (at node 7)
Accepted packet rate average = 0.0096875
	minimum = 0 (at node 0)
	maximum = 0.155 (at node 12)
Injected flit rate average = 0.009625
	minimum = 0.003 (at node 3)
	maximum = 0.018 (at node 7)
Accepted flit rate average= 0.0096875
	minimum = 0 (at node 0)
	maximum = 0.155 (at node 12)
Injected packet length average = 1
Accepted packet length average = 1
Total in-flight flits = 1 (1 measured)
latency change    = 0.00706778
throughput change = 0.083871
Class 0:
Packet latency average = 23.6951
	minimum = 7
	maximum = 50
Network latency average = 23.6951
	minimum = 7
	maximum = 50
Slowest packet = 5614
Flit latency average = 23.7733
	minimum = 7
	maximum = 50
Slowest flit = 5614
Fragmentation average = 0
	minimum = 0
	maximum = 0
Injected packet rate average = 0.00945833
	minimum = 0.006 (at node 12)
	maximum = 0.016 (at node 7)
Accepted packet rate average = 0.009375
	minimum = 0 (at node 0)
	maximum = 0.15 (at node 12)
Injected flit rate average = 0.00945833
	minimum = 0.006 (at node 12)
	maximum = 0.016 (at node 7)
Accepted flit rate average= 0.009375
	minimum = 0 (at node 0)
	maximum = 0.15 (at node 12)
Injected packet length average = 1
Accepted packet length average = 1
Total in-flight flits = 4 (4 measured)
latency change    = 0.00395694
throughput change = 0.0333333
Class 0:
Packet latency average = 24.0497
	minimum = 7
	maximum = 53
Network latency average = 24.0497
	minimum = 7
	maximum = 53
Slowest packet = 5809
Flit latency average = 24.1053
	minimum = 7
	maximum = 53
Slowest flit = 5809
Fragmentation average = 0
	minimum = 0
	maximum = 0
Injected packet rate average = 0.00953125
	minimum = 0.0075 (at node 12)
	maximum = 0.0145 (at node 7)
Accepted packet rate average = 0.0095
	minimum = 0 (at node 0)
	maximum = 0.152 (at node 12)
Injected flit rate average = 0.00953125
	minimum = 0.0075 (at node 12)
	maximum = 0.0145 (at node 7)
Accepted flit rate average= 0.0095
	minimum = 0 (at node 0)
	maximum = 0.152 (at node 12)
Injected packet length average = 1
Accepted packet length average = 1
Total in-flight flits = 3 (3 measured)
latency change    = 0.0147446
throughput change = 0.0131579
Class 0:
Packet latency average = 23.7212
	minimum = 7
	maximum = 53
Network latency average = 23.7212
	minimum = 7
	maximum = 53
Slowest packet = 5809
Flit latency average = 23.768
	minimum = 7
	maximum = 53
Slowest flit = 5809
Fragmentation average = 0
	minimum = 0
	maximum = 0
Injected packet rate average = 0.0094
	minimum = 0.0072 (at node 6)
	maximum = 0.0132 (at node 7)
Accepted packet rate average = 0.009375
	minimum = 0 (at node 0)
	maximum = 0.15 (at node 12)
Injected flit rate average = 0.0094
	minimum = 0.0072 (at node 6)
	maximum = 0.0132 (at node 7)
Accepted flit rate average= 0.009375
	minimum = 0 (at node 0)
	maximum = 0.15 (at node 12)
Injected packet length average = 1
Accepted packet length average = 1
Total in-flight flits = 3 (3 measured)
latency change    = 0.0138479
throughput change = 0.0133333
Draining all recorded packets ...
Draining remaining packets ...
Time taken is 4044 cycles
Class 0:
Packet latency average = 24.962
	minimum = 7
	maximum = 43
Network latency average = 24.962
	minimum = 7
	maximum = 43
Slowest packet = 5916
Flit latency average = 24.962
	minimum = 7
	maximum = 43
Slowest flit = 5916
Fragmentation average = 0
	minimum = 0
	maximum = 0
Injected packet rate average = 0.01025
	minimum = 0.002 (at node 15)
	maximum = 0.022 (at node 7)
Accepted packet rate average = 0.009875
	minimum = 0 (at node 0)
	maximum = 0.158 (at node 12)
Injected flit rate average = 0.01025
	minimum = 0.002 (at node 15)
	maximum = 0.022 (at node 7)
Accepted flit rate average= 0.009875
	minimum = 0 (at node 0)
	maximum = 0.158 (at node 12)
Injected packet length average = 1
Accepted packet length average = 1
Total in-flight flits = 3 (0 measured)
latency change    = 1
throughput change = 1
Class 0:
Packet latency average = 24.7692
	minimum = 7
	maximum = 54
Network latency average = 24.7692
	minimum = 7
	maximum = 54
Slowest packet = 6029
Flit latency average = 24.7692
	minimum = 7
	maximum = 54
Slowest flit = 6029
Fragmentation average = 0
	minimum = 0
	maximum = 0
Injected packet rate average = 0.010125
	minimum = 0.005 (at node 11)
	maximum = 0.018 (at node 7)
Accepted packet rate average = 0.00975
	minimum = 0 (at node 0)
	maximum = 0.156 (at node 12)
Injected flit rate average = 0.010125
	minimum = 0.005 (at node 11)
	maximum = 0.018 (at node 7)
Accepted flit rate average= 0.00975
	minimum = 0 (at node 0)
	maximum = 0.156 (at node 12)
Injected packet length average = 1
Accepted packet length average = 1
Total in-flight flits = 6 (0 measured)
latency change    = 0.00778363
throughput change = 0.0128205
Class 0:
Packet latency average = 23.8421
	minimum = 7
	maximum = 45
Network latency average = 23.8421
	minimum = 7
	maximum = 45
Slowest packet = 6049
Flit latency average = 23.8421
	minimum = 7
	maximum = 45
Slowest flit = 6049
Fragmentation average = 0
	minimum = 0
	maximum = 0
Injected packet rate average = 0.00925
	minimum = 0.002 (at node 1)
	maximum = 0.018 (at node 10)
Accepted packet rate average = 0.0095
	minimum = 0 (at node 0)
	maximum = 0.152 (at node 12)
Injected flit rate average = 0.00925
	minimum = 0.002 (at node 1)
	maximum = 0.018 (at node 10)
Accepted flit rate average= 0.0095
	minimum = 0 (at node 0)
	maximum = 0.152 (at node 12)
Injected packet length average = 1
Accepted packet length average = 1
Total in-flight flits = 4 (0 measured)
latency change    = 0.0388861
throughput change = 0.0263158
Warmed up ...Time used is 1500 cycles
Class 0:
Packet latency average = 26.1791
	minimum = 7
	maximum = 52
Network latency average = 26.1791
	minimum = 7
	maximum = 52
Slowest packet = 6154
Flit latency average = 26.1127
	minimum = 7
	maximum = 52
Slowest flit = 6154
Fragmentation average = 0
	minimum = 0
	maximum = 0
Injected packet rate average = 0.008625
	minimum = 0.004 (at node 7)
	maximum = 0.016 (at node 3)
Accepted packet rate average = 0.008875
	minimum = 0 (at node 0)
	maximum = 0.142 (at node 12)
Injected flit rate average = 0.008625
	minimum = 0.004 (at node 7)
	maximum = 0.016 (at node 3)
Accepted flit rate average= 0.008875
	minimum = 0 (at node 0)
	maximum = 0.142 (at node 12)
Injected packet length average = 1
Accepted packet length average = 1
Total in-flight flits = 2 (2 measured)
latency change    = 0.0892696
throughput change = 0.0704225
Class 0:
Packet latency average = 25.4621
	minimum = 7
	maximum = 52
Network latency average = 25.4621
	minimum = 7
	maximum = 52
Slowest packet = 6154
Flit latency average = 25.4485
	minimum = 7
	maximum = 52
Slowest flit = 6154
Fragmentation average = 0
	minimum = 0
	maximum = 0
Injected packet rate average = 0.0085625
	minimum = 0.004 (at node 15)
	maximum = 0.013 (at node 0)
Accepted packet rate average = 0.0085
	minimum = 0 (at node 0)
	maximum = 0.136 (at node 12)
Injected flit rate average = 0.0085625
	minimum = 0.004 (at node 15)
	maximum = 0.013 (at node 0)
Accepted flit rate average= 0.0085
	minimum = 0 (at node 0)
	maximum = 0.136 (at node 12)
Injected packet length average = 1
Accepted packet length average = 1
Total in-flight flits = 5 (5 measured)
latency change    = 0.0281588
throughput change = 0.0441176
Class 0:
Packet latency average = 25.0905
	minimum = 7
	maximum = 52
Network latency average = 25.0905
	minimum = 7
	maximum = 52
Slowest packet = 6154
Flit latency average = 25.0889
	minimum = 7
	maximum = 52
Slowest flit = 6154
Fragmentation average = 0
	minimum = 0
	maximum = 0
Injected packet rate average = 0.009375
	minimum = 0.00466667 (at node 15)
	maximum = 0.0153333 (at node 0)
Accepted packet rate average = 0.009375
	minimum = 0 (at node 0)
	maximum = 0.15 (at node 12)
Injected flit rate average = 0.009375
	minimum = 0.00466667 (at node 15)
	maximum = 0.0153333 (at node 0)
Accepted flit rate average= 0.009375
	minimum = 0 (at node 0)
	maximum = 0.15 (at node 12)
Injected packet length average = 1
Accepted packet length average = 1
Total in-flight flits = 4 (4 measured)
latency change    = 0.0148113
throughput change = 0.0933333
Class 0:
Packet latency average = 24.8167
	minimum = 7
	maximum = 57
Network latency average = 24.8167
	minimum = 7
	maximum = 57
Slowest packet = 6356
Flit latency average = 24.8191
	minimum = 7
	maximum = 57
Slowest flit = 6356
Fragmentation average = 0
	minimum = 0
	maximum = 0
Injected packet rate average = 0.0095
	minimum = 0.0045 (at node 13)
	maximum = 0.0135 (at node 0)
Accepted packet rate average = 0.0095
	minimum = 0 (at node 0)
	maximum = 0.152 (at node 12)
Injected flit rate average = 0.0095
	minimum = 0.0045 (at node 13)
	maximum = 0.0135 (at node 0)
Accepted flit rate average= 0.0095
	minimum = 0 (at node 0)
	maximum = 0.152 (at node 12)
Injected packet length average = 1
Accepted packet length average = 1
Total in-flight flits = 4 (4 measured)
latency change    = 0.0110342
throughput change = 0.0131579
Class 0:
Packet latency average = 24.5055
	minimum = 7
	maximum = 57
Network latency average = 24.5055
	minimum = 7
	maximum = 57
Slowest packet = 6356
Flit latency average = 24.5108
	minimum = 7
	maximum = 57
Slowest flit = 6356
Fragmentation average = 0
	minimum = 0
	maximum = 0
Injected packet rate average = 0.009325
	minimum = 0.0068 (at node 15)
	maximum = 0.0124 (at node 0)
Accepted packet rate average = 0.00925
	minimum = 0 (at node 0)
	maximum = 0.148 (at node 12)
Injected flit rate average = 0.009325
	minimum = 0.0068 (at node 15)
	maximum = 0.0124 (at node 0)
Accepted flit rate average= 0.00925
	minimum = 0 (at node 0)
	maximum = 0.148 (at node 12)
Injected packet length average = 1
Accepted packet length average = 1
Total in-flight flits = 7 (7 measured)
latency change    = 0.0126993
throughput change = 0.027027
Class 0:
Packet latency average = 24.9157
	minimum = 7
	maximum = 69
Network latency average = 24.9157
	minimum = 7
	maximum = 69
Slowest packet = 6529
Flit latency average = 24.9165
	minimum = 7
	maximum = 69
Slowest flit = 6529
Fragmentation average = 0
	minimum = 0
	maximum = 0
Injected packet rate average = 0.0094375
	minimum = 0.00666667 (at node 13)
	maximum = 0.012 (at node 8)
Accepted packet rate average = 0.00947917
	minimum = 0 (at node 0)
	maximum = 0.151667 (at node 12)
Injected flit rate average = 0.0094375
	minimum = 0.00666667 (at node 13)
	maximum = 0.012 (at node 8)
Accepted flit rate average= 0.00947917
	minimum = 0 (at node 0)
	maximum = 0.151667 (at node 12)
Injected packet length average = 1
Accepted packet length average = 1
Total in-flight flits = 2 (2 measured)
latency change    = 0.0164666
throughput change = 0.0241758
Draining all recorded packets ...
Draining remaining packets ...
Time taken is 4550 cycles
Class 0:
Packet latency average = 22.2273
	minimum = 7
	maximum = 41
Network latency average = 22.2273
	minimum = 7
	maximum = 41
Slowest packet = 6618
Flit latency average = 22.2273
	minimum = 7
	maximum = 41
Slowest flit = 6618
Fragmentation average = 0
	minimum = 0
	maximum = 0
Injected packet rate average = 0.0085
	minimum = 0.004 (at node 3)
	maximum = 0.02 (at node 9)
Accepted packet rate average = 0.00825
	minimum = 0 (at node 0)
	maximum = 0.132 (at node 12)
Injected flit rate average = 0.0085
	minimum = 0.004 (at node 3)
	maximum = 0.02 (at node 9)
Accepted flit rate average= 0.00825
	minimum = 0 (at node 0)
	maximum = 0.132 (at node 12)
Injected packet length average = 1
Accepted packet length average = 1
Total in-flight flits = 2 (0 measured)
latency change    = 1
throughput change = 1
Class 0:
Packet latency average = 22.7308
	minimum = 7
	maximum = 45
Network latency average = 22.7308
	minimum = 7
	maximum = 45
Slowest packet = 6678
Flit latency average = 22.7308
	minimum = 7
	maximum = 45
Slowest flit = 6678
Fragmentation average = 0
	minimum = 0
	maximum = 0
Injected packet rate average = 0.009875
	minimum = 0.007 (at node 6)
	maximum = 0.014 (at node 9)
Accepted packet rate average = 0.00975
	minimum = 0 (at node 0)
	maximum = 0.156 (at node 12)
Injected flit rate average = 0.009875
	minimum = 0.007 (at node 6)
	maximum = 0.014 (at node 9)
Accepted flit rate average= 0.00975
	minimum = 0 (at node 0)
	maximum = 0.156 (at node 12)
Injected packet length average = 1
Accepted packet length average = 1
Total in-flight flits = 2 (0 measured)
latency change    = 0.0221504
throughput change = 0.153846
Class 0:
Packet latency average = 27.1067
	minimum = 7
	maximum = 80
Network latency average = 27.1067
	minimum = 7
	maximum = 80
Slowest packet = 6772
Flit latency average = 27.1067
	minimum = 7
	maximum = 80
Slowest flit = 6772
Fragmentation average = 0
	minimum = 0
	maximum = 0
Injected packet rate average = 0.009375
	minimum = 0.006 (at node 1)
	maximum = 0.016 (at node 4)
Accepted packet rate average = 0.009375
	minimum = 0 (at node 0)
	maximum = 0.15 (at node 12)
Injected flit rate average = 0.009375
	minimum = 0.006 (at node 1)
	maximum = 0.016 (at node 4)
Accepted flit rate average= 0.009375
	minimum = 0 (at node 0)
	maximum = 0.15 (at node 12)
Injected packet length average = 1
Accepted packet length average = 1
Total in-flight flits = 2 (0 measured)
latency change    = 0.161433
throughput change = 0.04
Warmed up ...Time used is 1500 cycles
Class 0:
Packet latency average = 23.2273
	minimum = 7
	maximum = 44
Network latency average = 23.2273
	minimum = 7
	maximum = 44
Slowest packet = 6872
Flit latency average = 23.3382
	minimum = 7
	maximum = 44
Slowest flit = 6872
Fragmentation average = 0
	minimum = 0
	maximum = 0
Injected packet rate average = 0.008625
	minimum = 0.002 (at node 7)
	maximum = 0.016 (at node 5)
Accepted packet rate average = 0.0085
	minimum = 0 (at node 0)
	maximum = 0.136 (at node 12)
Injected flit rate average = 0.008625
	minimum = 0.002 (at node 7)
	maximum = 0.016 (at node 5)
Accepted flit rate average= 0.0085
	minimum = 0 (at node 0)
	maximum = 0.136 (at node 12)
Injected packet length average = 1
Accepted packet length average = 1
Total in-flight flits = 3 (3 measured)
latency change    = 0.167019
throughput change = 0.102941
Class 0:
Packet latency average = 23.5882
	minimum = 7
	maximum = 55
Network latency average = 23.5882
	minimum = 7
	maximum = 55
Slowest packet = 6947
Flit latency average = 23.6323
	minimum = 7
	maximum = 55
Slowest flit = 6947
Fragmentation average = 0
	minimum = 0
	maximum = 0
Injected packet rate average = 0.0099375
	minimum = 0.006 (at node 9)
	maximum = 0.016 (at node 5)
Accepted packet rate average = 0.0096875
	minimum = 0 (at node 0)
	maximum = 0.155 (at node 12)
Injected flit rate average = 0.0099375
	minimum = 0.006 (at node 9)
	maximum = 0.016 (at node 5)
Accepted flit rate average= 0.0096875
	minimum = 0 (at node 0)
	maximum = 0.155 (at node 12)
Injected packet length average = 1
Accepted packet length average = 1
Total in-flight flits = 6 (6 measured)
latency change    = 0.0153027
throughput change = 0.122581
Class 0:
Packet latency average = 23.9034
	minimum = 7
	maximum = 63
Network latency average = 23.9034
	minimum = 7
	maximum = 63
Slowest packet = 7034
Flit latency average = 23.9292
	minimum = 7
	maximum = 63
Slowest flit = 7034
Fragmentation average = 0
	minimum = 0
	maximum = 0
Injected packet rate average = 0.01
	minimum = 0.006 (at node 9)
	maximum = 0.016 (at node 4)
Accepted packet rate average = 0.01
	minimum = 0 (at node 0)
	maximum = 0.16 (at node 12)
Injected flit rate average = 0.01
	minimum = 0.006 (at node 9)
	maximum = 0.016 (at node 4)
Accepted flit rate average= 0.01
	minimum = 0 (at node 0)
	maximum = 0.16 (at node 12)
Injected packet length average = 1
Accepted packet length average = 1
Total in-flight flits = 2 (2 measured)
latency change    = 0.0131833
throughput change = 0.03125
Class 0:
Packet latency average = 23.6786
	minimum = 7
	maximum = 63
Network latency average = 23.6786
	minimum = 7
	maximum = 63
Slowest packet = 7034
Flit latency average = 23.7
	minimum = 7
	maximum = 63
Slowest flit = 7034
Fragmentation average = 0
	minimum = 0
	maximum = 0
Injected packet rate average = 0.00984375
	minimum = 0.007 (at node 9)
	maximum = 0.0135 (at node 4)
Accepted packet rate average = 0.0096875
	minimum = 0 (at node 0)
	maximum = 0.155 (at node 12)
Injected flit rate average = 0.00984375
	minimum = 0.007 (at node 9)
	maximum = 0.0135 (at node 4)
Accepted flit rate average= 0.0096875
	minimum = 0 (at node 0)
	maximum = 0.155 (at node 12)
Injected packet length average = 1
Accepted packet length average = 1
Total in-flight flits = 7 (7 measured)
latency change    = 0.00949339
throughput change = 0.0322581
Class 0:
Packet latency average = 24.0631
	minimum = 7
	maximum = 63
Network latency average = 24.0631
	minimum = 7
	maximum = 63
Slowest packet = 7034
Flit latency average = 24.0779
	minimum = 7
	maximum = 63
Slowest flit = 7034
Fragmentation average = 0
	minimum = 0
	maximum = 0
Injected packet rate average = 0.01005
	minimum = 0.0068 (at node 9)
	maximum = 0.0128 (at node 5)
Accepted packet rate average = 0.00995
	minimum = 0 (at node 0)
	maximum = 0.1592 (at node 12)
Injected flit rate average = 0.01005
	minimum = 0.0068 (at node 9)
	maximum = 0.0128 (at node 5)
Accepted flit rate average= 0.00995
	minimum = 0 (at node 0)
	maximum = 0.1592 (at node 12)
Injected packet length average = 1
Accepted packet length average = 1
Total in-flight flits = 6 (6 measured)
latency change    = 0.0159813
throughput change = 0.0263819
Draining all recorded packets ...
Draining remaining packets ...
Time taken is 4034 cycles
Class 0:
Packet latency average = 25.25
	minimum = 7
	maximum = 55
Network latency average = 25.25
	minimum = 7
	maximum = 55
Slowest packet = 7258
Flit latency average = 25.25
	minimum = 7
	maximum = 55
Slowest flit = 7258
Fragmentation average = 0
	minimum = 0
	maximum = 0
Injected packet rate average = 0.009875
	minimum = 0.002 (at node 15)
	maximum = 0.018 (at node 3)
Accepted packet rate average = 0.0095
	minimum = 0 (at node 0)
	maximum = 0.152 (at node 12)
Injected flit rate average = 0.009875
	minimum = 0.002 (at node 15)
	maximum = 0.018 (at node 3)
Accepted flit rate average= 0.0095
	minimum = 0 (at node 0)
	maximum = 0.152 (at node 12)
Injected packet length average = 1
Accepted packet length average = 1
Total in-flight flits = 3 (0 measured)
latency change    = 1
throughput change = 1
Class 0:
Packet latency average = 23.9408
	minimum = 7
	maximum = 55
Network latency average = 23.9408
	minimum = 7
	maximum = 55
Slowest packet = 7258
Flit latency average = 23.9408
	minimum = 7
	maximum = 55
Slowest flit = 7258
Fragmentation average = 0
	minimum = 0
	maximum = 0
Injected packet rate average = 0.0099375
	minimum = 0.005 (at node 13)
	maximum = 0.014 (at node 1)
Accepted packet rate average = 0.0095
	minimum = 0 (at node 0)
	maximum = 0.152 (at node 12)
Injected flit rate average = 0.0099375
	minimum = 0.005 (at node 13)
	maximum = 0.014 (at node 1)
Accepted flit rate average= 0.0095
	minimum = 0 (at node 0)
	maximum = 0.152 (at node 12)
Injected packet length average = 1
Accepted packet length average = 1
Total in-flight flits = 7 (0 measured)
latency change    = 0.0546854
throughput change = 0
Class 0:
Packet latency average = 26.2473
	minimum = 7
	maximum = 58
Network latency average = 26.2473
	minimum = 7
	maximum = 58
Slowest packet = 7373
Flit latency average = 26.2473
	minimum = 7
	maximum = 58
Slowest flit = 7373
Fragmentation average = 0
	minimum = 0
	maximum = 0
Injected packet rate average = 0.011125
	minimum = 0.004 (at node 14)
	maximum = 0.02 (at node 4)
Accepted packet rate average = 0.011625
	minimum = 0 (at node 0)
	maximum = 0.186 (at node 12)
Injected flit rate average = 0.011125
	minimum = 0.004 (at node 14)
	maximum = 0.02 (at node 4)
Accepted flit rate average= 0.011625
	minimum = 0 (at node 0)
	maximum = 0.186 (at node 12)
Injected packet length average = 1
Accepted packet length average = 1
Total in-flight flits = 3 (0 measured)
latency change    = 0.0878765
throughput change = 0.182796
Warmed up ...Time used is 1500 cycles
Class 0:
Packet latency average = 23.8471
	minimum = 7
	maximum = 63
Network latency average = 23.8471
	minimum = 7
	maximum = 63
Slowest packet = 7507
Flit latency average = 23.7841
	minimum = 7
	maximum = 63
Slowest flit = 7507
Fragmentation average = 0
	minimum = 0
	maximum = 0
Injected packet rate average = 0.011125
	minimum = 0.004 (at node 2)
	maximum = 0.02 (at node 0)
Accepted packet rate average = 0.011
	minimum = 0 (at node 0)
	maximum = 0.176 (at node 12)
Injected flit rate average = 0.011125
	minimum = 0.004 (at node 2)
	maximum = 0.02 (at node 0)
[...]
Total in-flight flits = 4 (4 measured)
latency change    = 0.0283067
throughput change = 0.0365854
Class 0:
Packet latency average = 24.7337
	minimum = 7
	maximum = 57
Network latency average = 24.7337
	minimum = 7
	maximum = 57
Slowest packet = 31118
Flit latency average = 24.6279
	minimum = 7
	maximum = 57
Slowest flit = 31118
Fragmentation average = 0
	minimum = 0
	maximum = 0
Injected packet rate average = 0.0108125
	minimum = 0.007 (at node 7)
	maximum = 0.017 (at node 1)
Accepted packet rate average = 0.01075
	minimum = 0 (at node 0)
	maximum = 0.172 (at node 12)
Injected flit rate average = 0.0108125
	minimum = 0.007 (at node 7)
	maximum = 0.017 (at node 1)
Accepted flit rate average= 0.01075
	minimum = 0 (at node 0)
	maximum = 0.172 (at node 12)
Injected packet length average = 1
Accepted packet length average = 1
Total in-flight flits = 4 (4 measured)
latency change    = 0.00561141
throughput change = 0.0465116
Class 0:
Packet latency average = 26.0833
	minimum = 7
	maximum = 69
Network latency average = 26.0833
	minimum = 7
	maximum = 69
Slowest packet = 31268
Flit latency average = 25.9961
	minimum = 7
	maximum = 69
Slowest flit = 31268
Fragmentation average = 0
	minimum = 0
	maximum = 0
Injected packet rate average = 0.0105417
	minimum = 0.00733333 (at node 12)
	maximum = 0.0166667 (at node 1)
Accepted packet rate average = 0.010625
	minimum = 0 (at node 0)
	maximum = 0.17 (at node 12)
Injected flit rate average = 0.0105417
	minimum = 0.00733333 (at node 12)
	maximum = 0.0166667 (at node 1)
Accepted flit rate average= 0.010625
	minimum = 0 (at node 0)
	maximum = 0.17 (at node 12)
Injected packet length average = 1
Accepted packet length average = 1
Total in-flight flits = 1 (1 measured)
latency change    = 0.0517421
throughput change = 0.0117647
Class 0:
Packet latency average = 25.3281
	minimum = 7
	maximum = 69
Network latency average = 25.3281
	minimum = 7
	maximum = 69
Slowest packet = 31268
Flit latency average = 25.2663
	minimum = 7
	maximum = 69
Slowest flit = 31268
Fragmentation average = 0
	minimum = 0
	maximum = 0
Injected packet rate average = 0.0100313
	minimum = 0.0075 (at node 11)
	maximum = 0.0145 (at node 1)
Accepted packet rate average = 0.0100938
	minimum = 0 (at node 0)
	maximum = 0.1615 (at node 12)
Injected flit rate average = 0.0100313
	minimum = 0.0075 (at node 11)
	maximum = 0.0145 (at node 1)
Accepted flit rate average= 0.0100938
	minimum = 0 (at node 0)
	maximum = 0.1615 (at node 12)
Injected packet length average = 1
Accepted packet length average = 1
Total in-flight flits = 1 (1 measured)
latency change    = 0.029817
throughput change = 0.0526316
Class 0:
Packet latency average = 25.0756
	minimum = 7
	maximum = 69
Network latency average = 25.0756
	minimum = 7
	maximum = 69
Slowest packet = 31268
Flit latency average = 25.0291
	minimum = 7
	maximum = 69
Slowest flit = 31268
Fragmentation average = 0
	minimum = 0
	maximum = 0
Injected packet rate average = 0.010375
	minimum = 0.0072 (at node 13)
	maximum = 0.0144 (at node 1)
Accepted packet rate average = 0.010325
	minimum = 0 (at node 0)
	maximum = 0.1652 (at node 12)
Injected flit rate average = 0.010375
	minimum = 0.0072 (at node 13)
	maximum = 0.0144 (at node 1)
Accepted flit rate average= 0.010325
	minimum = 0 (at node 0)
	maximum = 0.1652 (at node 12)
Injected packet length average = 1
Accepted packet length average = 1
Total in-flight flits = 5 (5 measured)
latency change    = 0.0100702
throughput change = 0.0223971
Class 0:
Packet latency average = 24.9855
	minimum = 7
	maximum = 69
Network latency average = 24.9855
	minimum = 7
	maximum = 69
Slowest packet = 31268
Flit latency average = 24.9464
	minimum = 7
	maximum = 69
Slowest flit = 31268
Fragmentation average = 0
	minimum = 0
	maximum = 0
Injected packet rate average = 0.0101458
	minimum = 0.00766667 (at node 13)
	maximum = 0.0136667 (at node 1)
Accepted packet rate average = 0.0101042
	minimum = 0 (at node 0)
	maximum = 0.161667 (at node 12)
Injected flit rate average = 0.0101458
	minimum = 0.00766667 (at node 13)
	maximum = 0.0136667 (at node 1)
Accepted flit rate average= 0.0101042
	minimum = 0 (at node 0)
	maximum = 0.161667 (at node 12)
Injected packet length average = 1
Accepted packet length average = 1
Total in-flight flits = 5 (5 measured)
latency change    = 0.0036074
throughput change = 0.0218557
Class 0:
Packet latency average = 24.8268
	minimum = 7
	maximum = 69
Network latency average = 24.8268
	minimum = 7
	maximum = 69
Slowest packet = 31268
Flit latency average = 24.794
	minimum = 7
	maximum = 69
Slowest flit = 31268
Fragmentation average = 0
	minimum = 0
	maximum = 0
Injected packet rate average = 0.0100893
	minimum = 0.008 (at node 13)
	maximum = 0.0128571 (at node 1)
Accepted packet rate average = 0.0100536
	minimum = 0 (at node 0)
	maximum = 0.160857 (at node 12)
Injected flit rate average = 0.0100893
	minimum = 0.008 (at node 13)
	maximum = 0.0128571 (at node 1)
Accepted flit rate average= 0.0100536
	minimum = 0 (at node 0)
	maximum = 0.160857 (at node 12)
Injected packet length average = 1
Accepted packet length average = 1
Total in-flight flits = 5 (5 measured)
latency change    = 0.00639195
throughput change = 0.00503256
Draining all recorded packets ...
Draining remaining packets ...
Time taken is 5048 cycles
Class 0:
Packet latency average = 26.2766
	minimum = 7
	maximum = 54
Network latency average = 26.2766
	minimum = 7
	maximum = 54
Slowest packet = 31647
Flit latency average = 26.2766
	minimum = 7
	maximum = 54
Slowest flit = 31647
Fragmentation average = 0
	minimum = 0
	maximum = 0
Injected packet rate average = 0.01225
	minimum = 0.002 (at node 8)
	maximum = 0.022 (at node 0)
Accepted packet rate average = 0.01175
	minimum = 0 (at node 0)
	maximum = 0.188 (at node 12)
Injected flit rate average = 0.01225
	minimum = 0.002 (at node 8)
	maximum = 0.022 (at node 0)
Accepted flit rate average= 0.01175
	minimum = 0 (at node 0)
	maximum = 0.188 (at node 12)
Injected packet length average = 1
Accepted packet length average = 1
Total in-flight flits = 4 (0 measured)
latency change    = 1
throughput change = 1
Class 0:
Packet latency average = 25.8509
	minimum = 7
	maximum = 54
Network latency average = 25.8509
	minimum = 7
	maximum = 54
Slowest packet = 31647
Flit latency average = 25.8509
	minimum = 7
	maximum = 54
Slowest flit = 31647
Fragmentation average = 0
	minimum = 0
	maximum = 0
Injected packet rate average = 0.0103125
	minimum = 0.003 (at node 9)
	maximum = 0.015 (at node 0)
Accepted packet rate average = 0.0100625
	minimum = 0 (at node 0)
	maximum = 0.161 (at node 12)
Injected flit rate average = 0.0103125
	minimum = 0.003 (at node 9)
	maximum = 0.015 (at node 0)
Accepted flit rate average= 0.0100625
	minimum = 0 (at node 0)
	maximum = 0.161 (at node 12)
Injected packet length average = 1
Accepted packet length average = 1
Total in-flight flits = 4 (0 measured)
latency change    = 0.0164661
throughput change = 0.167702
Class 0:
Packet latency average = 24.6184
	minimum = 7
	maximum = 49
Network latency average = 24.6184
	minimum = 7
	maximum = 49
Slowest packet = 31804
Flit latency average = 24.6184
	minimum = 7
	maximum = 49
Slowest flit = 31804
Fragmentation average = 0
	minimum = 0
	maximum = 0
Injected packet rate average = 0.00925
	minimum = 0.002 (at node 14)
	maximum = 0.016 (at node 1)
Accepted packet rate average = 0.0095
	minimum = 0 (at node 0)
	maximum = 0.152 (at node 12)
Injected flit rate average = 0.00925
	minimum = 0.002 (at node 14)
	maximum = 0.016 (at node 1)
Accepted flit rate average= 0.0095
	minimum = 0 (at node 0)
	maximum = 0.152 (at node 12)
Injected packet length average = 1
Accepted packet length average = 1
Total in-flight flits = 2 (0 measured)
latency change    = 0.0500646
throughput change = 0.0592105
Warmed up ...Time used is 1500 cycles
Class 0:
Packet latency average = 25.6324
	minimum = 7
	maximum = 54
Network latency average = 25.6324
	minimum = 7
	maximum = 54
Slowest packet = 31905
Flit latency average = 25.7429
	minimum = 7
	maximum = 54
Slowest flit = 31905
Fragmentation average = 0
	minimum = 0
	maximum = 0
Injected packet rate average = 0.009
	minimum = 0.004 (at node 11)
	maximum = 0.018 (at node 2)
Accepted packet rate average = 0.00875
	minimum = 0 (at node 0)
	maximum = 0.14 (at node 12)
Injected flit rate average = 0.009
	minimum = 0.004 (at node 11)
	maximum = 0.018 (at node 2)
Accepted flit rate average= 0.00875
	minimum = 0 (at node 0)
	maximum = 0.14 (at node 12)
Injected packet length average = 1
Accepted packet length average = 1
Total in-flight flits = 4 (4 measured)
latency change    = 0.0395567
throughput change = 0.0857143
Class 0:
Packet latency average = 25.0759
	minimum = 7
	maximum = 54
Network latency average = 25.0759
	minimum = 7
	maximum = 54
Slowest packet = 31905
Flit latency average = 25.1361
	minimum = 7
	maximum = 54
Slowest flit = 31905
Fragmentation average = 0
	minimum = 0
	maximum = 0
Injected packet rate average = 0.0094375
	minimum = 0.005 (at node 0)
	maximum = 0.015 (at node 2)
Accepted packet rate average = 0.0091875
	minimum = 0 (at node 0)
	maximum = 0.147 (at node 12)
Injected flit rate average = 0.0094375
	minimum = 0.005 (at node 0)
	maximum = 0.015 (at node 2)
Accepted flit rate average= 0.0091875
	minimum = 0 (at node 0)
	maximum = 0.147 (at node 12)
Injected packet length average = 1
Accepted packet length average = 1
Total in-flight flits = 6 (6 measured)
latency change    = 0.0221923
throughput change = 0.047619
Class 0:
Packet latency average = 24.4978
	minimum = 7
	maximum = 54
Network latency average = 24.4978
	minimum = 7
	maximum = 54
Slowest packet = 31905
Flit latency average = 24.5411
	minimum = 7
	maximum = 54
Slowest flit = 31905
Fragmentation average = 0
	minimum = 0
	maximum = 0
Injected packet rate average = 0.00966667
	minimum = 0.006 (at node 5)
	maximum = 0.0133333 (at node 2)
Accepted packet rate average = 0.009625
	minimum = 0 (at node 0)
	maximum = 0.154 (at node 12)
Injected flit rate average = 0.00966667
	minimum = 0.006 (at node 5)
	maximum = 0.0133333 (at node 2)
Accepted flit rate average= 0.009625
	minimum = 0 (at node 0)
	maximum = 0.154 (at node 12)
Injected packet length average = 1
Accepted packet length average = 1
Total in-flight flits = 3 (3 measured)
latency change    = 0.0235958
throughput change = 0.0454545
Class 0:
Packet latency average = 24.6326
	minimum = 7
	maximum = 58
Network latency average = 24.6326
	minimum = 7
	maximum = 58
Slowest packet = 32147
Flit latency average = 24.6635
	minimum = 7
	maximum = 58
Slowest flit = 32147
Fragmentation average = 0
	minimum = 0
	maximum = 0
Injected packet rate average = 0.00990625
	minimum = 0.0045 (at node 5)
	maximum = 0.0125 (at node 3)
Accepted packet rate average = 0.00984375
	minimum = 0 (at node 0)
	maximum = 0.1575 (at node 12)
Injected flit rate average = 0.00990625
	minimum = 0.0045 (at node 5)
	maximum = 0.0125 (at node 3)
Accepted flit rate average= 0.00984375
	minimum = 0 (at node 0)
	maximum = 0.1575 (at node 12)
Injected packet length average = 1
Accepted packet length average = 1
Total in-flight flits = 4 (4 measured)
latency change    = 0.00547126
throughput change = 0.0222222
Draining all recorded packets ...
Draining remaining packets ...
Time taken is 3547 cycles
Class 0:
Packet latency average = 22.4571
	minimum = 7
	maximum = 40
Network latency average = 22.4571
	minimum = 7
	maximum = 40
Slowest packet = 32246
Flit latency average = 22.4571
	minimum = 7
	maximum = 40
Slowest flit = 32246
Fragmentation average = 0
	minimum = 0
	maximum = 0
Injected packet rate average = 0.00925
	minimum = 0.004 (at node 10)
	maximum = 0.016 (at node 14)
Accepted packet rate average = 0.00875
	minimum = 0 (at node 0)
	maximum = 0.14 (at node 12)
Injected flit rate average = 0.00925
	minimum = 0.004 (at node 10)
	maximum = 0.016 (at node 14)
Accepted flit rate average= 0.00875
	minimum = 0 (at node 0)
	maximum = 0.14 (at node 12)
Injected packet length average = 1
Accepted packet length average = 1
Total in-flight flits = 4 (0 measured)
latency change    = 1
throughput change = 1
Class 0:
Packet latency average = 23.7628
	minimum = 7
	maximum = 40
Network latency average = 23.7628
	minimum = 7
	maximum = 40
Slowest packet = 32246
Flit latency average = 23.7628
	minimum = 7
	maximum = 40
Slowest flit = 32246
Fragmentation average = 0
	minimum = 0
	maximum = 0
Injected packet rate average = 0.01
	minimum = 0.005 (at node 10)
	maximum = 0.015 (at node 14)
Accepted packet rate average = 0.00975
	minimum = 0 (at node 0)
	maximum = 0.156 (at node 12)
Injected flit rate average = 0.01
	minimum = 0.005 (at node 10)
	maximum = 0.015 (at node 14)
Accepted flit rate average= 0.00975
	minimum = 0 (at node 0)
	maximum = 0.156 (at node 12)
Injected packet length average = 1
Accepted packet length average = 1
Total in-flight flits = 4 (0 measured)
latency change    = 0.0549462
throughput change = 0.102564
Class 0:
Packet latency average = 24.8846
	minimum = 7
	maximum = 49
Network latency average = 24.8846
	minimum = 7
	maximum = 49
Slowest packet = 32406
Flit latency average = 24.8846
	minimum = 7
	maximum = 49
Slowest flit = 32406
Fragmentation average = 0
	minimum = 0
	maximum = 0
Injected packet rate average = 0.01
	minimum = 0.006 (at node 1)
	maximum = 0.022 (at node 0)
Accepted packet rate average = 0.00975
	minimum = 0 (at node 0)
	maximum = 0.156 (at node 12)
Injected flit rate average = 0.01
	minimum = 0.006 (at node 1)
	maximum = 0.022 (at node 0)
Accepted flit rate average= 0.00975
	minimum = 0 (at node 0)
	maximum = 0.156 (at node 12)
Injected packet length average = 1
Accepted packet length average = 1
Total in-flight flits = 6 (0 measured)
latency change    = 0.0450799
throughput change = 0
Warmed up ...Time used is 1500 cycles
Class 0:
Packet latency average = 22.4308
	minimum = 7
	maximum = 51
Network latency average = 22.4308
	minimum = 7
	maximum = 51
Slowest packet = 32444
Flit latency average = 24.1831
	minimum = 7
	maximum = 62
Slowest flit = 32405
Fragmentation average = 0
	minimum = 0
	maximum = 0
Injected packet rate average = 0.0085
	minimum = 0.002 (at node 8)
	maximum = 0.016 (at node 9)
Accepted packet rate average = 0.008875
	minimum = 0 (at node 0)
	maximum = 0.142 (at node 12)
Injected flit rate average = 0.0085
	minimum = 0.002 (at node 8)
	maximum = 0.016 (at node 9)
Accepted flit rate average= 0.008875
	minimum = 0 (at node 0)
	maximum = 0.142 (at node 12)
Injected packet length average = 1
Accepted packet length average = 1
Total in-flight flits = 3 (3 measured)
latency change    = 0.109396
throughput change = 0.0985915
Class 0:
Packet latency average = 23.5641
	minimum = 7
	maximum = 52
Network latency average = 23.5641
	minimum = 7
	maximum = 52
Slowest packet = 32526
Flit latency average = 24.2901
	minimum = 7
	maximum = 62
Slowest flit = 32405
Fragmentation average = 0
	minimum = 0
	maximum = 0
Injected packet rate average = 0.01025
	minimum = 0.004 (at node 15)
	maximum = 0.017 (at node 1)
Accepted packet rate average = 0.010125
	minimum = 0 (at node 0)
	maximum = 0.162 (at node 12)
Injected flit rate average = 0.01025
	minimum = 0.004 (at node 15)
	maximum = 0.017 (at node 1)
Accepted flit rate average= 0.010125
	minimum = 0 (at node 0)
	maximum = 0.162 (at node 12)
Injected packet length average = 1
Accepted packet length average = 1
Total in-flight flits = 8 (8 measured)
latency change    = 0.0480958
throughput change = 0.123457
Class 0:
Packet latency average = 25.0556
	minimum = 7
	maximum = 64
Network latency average = 25.0556
	minimum = 7
	maximum = 64
Slowest packet = 32581
Flit latency average = 25.5083
	minimum = 7
	maximum = 64
Slowest flit = 32581
Fragmentation average = 0
	minimum = 0
	maximum = 0
Injected packet rate average = 0.00983333
	minimum = 0.00466667 (at node 15)
	maximum = 0.014 (at node 1)
Accepted packet rate average = 0.01
	minimum = 0 (at node 0)
	maximum = 0.16 (at node 12)
Injected flit rate average = 0.00983333
	minimum = 0.00466667 (at node 15)
	maximum = 0.014 (at node 1)
Accepted flit rate average= 0.01
	minimum = 0 (at node 0)
	maximum = 0.16 (at node 12)
Injected packet length average = 1
Accepted packet length average = 1
Total in-flight flits = 2 (2 measured)
latency change    = 0.0595258
throughput change = 0.0125
Class 0:
Packet latency average = 24.3429
	minimum = 7
	maximum = 64
Network latency average = 24.3429
	minimum = 7
	maximum = 64
Slowest packet = 32581
Flit latency average = 24.6947
	minimum = 7
	maximum = 64
Slowest flit = 32581
Fragmentation average = 0
	minimum = 0
	maximum = 0
Injected packet rate average = 0.0100625
	minimum = 0.0065 (at node 15)
	maximum = 0.014 (at node 13)
Accepted packet rate average = 0.0100313
	minimum = 0 (at node 0)
	maximum = 0.1605 (at node 12)
Injected flit rate average = 0.0100625
	minimum = 0.0065 (at node 15)
	maximum = 0.014 (at node 13)
Accepted flit rate average= 0.0100313
	minimum = 0 (at node 0)
	maximum = 0.1605 (at node 12)
Injected packet length average = 1
Accepted packet length average = 1
Total in-flight flits = 7 (7 measured)
latency change    = 0.0292775
throughput change = 0.00311526
Class 0:
Packet latency average = 23.8977
	minimum = 7
	maximum = 64
Network latency average = 23.8977
	minimum = 7
	maximum = 64
Slowest packet = 32581
Flit latency average = 24.1889
	minimum = 7
	maximum = 64
Slowest flit = 32581
Fragmentation average = 0
	minimum = 0
	maximum = 0
Injected packet rate average = 0.009875
	minimum = 0.0072 (at node 10)
	maximum = 0.0152 (at node 13)
Accepted packet rate average = 0.009925
	minimum = 0 (at node 0)
	maximum = 0.1588 (at node 12)
Injected flit rate average = 0.009875
	minimum = 0.0072 (at node 10)
	maximum = 0.0152 (at node 13)
Accepted flit rate average= 0.009925
	minimum = 0 (at node 0)
	maximum = 0.1588 (at node 12)
Injected packet length average = 1
Accepted packet length average = 1
Total in-flight flits = 4 (4 measured)
latency change    = 0.0186277
throughput change = 0.0107053
Class 0:
Packet latency average = 24.3075
	minimum = 7
	maximum = 64
Network latency average = 24.3075
	minimum = 7
	maximum = 64
Slowest packet = 32581
Flit latency average = 24.5352
	minimum = 7
	maximum = 64
Slowest flit = 32581
Fragmentation average = 0
	minimum = 0
	maximum = 0
Injected packet rate average = 0.0102708
	minimum = 0.008 (at node 2)
	maximum = 0.014 (at node 13)
Accepted packet rate average = 0.0103542
	minimum = 0 (at node 0)
	maximum = 0.165667 (at node 12)
Injected flit rate average = 0.0102708
	minimum = 0.008 (at node 2)
	maximum = 0.014 (at node 13)
Accepted flit rate average= 0.0103542
	minimum = 0 (at node 0)
	maximum = 0.165667 (at node 12)
Injected packet length average = 1
Accepted packet length average = 1
Total in-flight flits = 2 (2 measured)
latency change    = 0.0168605
throughput change = 0.0414487
Draining all recorded packets ...
Draining remaining packets ...
Time taken is 4545 cycles
====== Overall Traffic Statistics ======
====== Traffic class 0 ======
Packet latency average = 24.3104 (50 samples)
	minimum = 7 (50 samples)
	maximum = 64.5 (50 samples)
Network latency average = 24.3104 (50 samples)
	minimum = 7 (50 samples)
	maximum = 64.5 (50 samples)
Flit latency average = 24.3626 (50 samples)
	minimum = 7 (50 samples)
	maximum = 65.52 (50 samples)
Fragmentation average = 0 (50 samples)
	minimum = 0 (50 samples)
	maximum = 0 (50 samples)
Injected packet rate average = 0.00999696 (50 samples)
	minimum = 0.00661981 (50 samples)
	maximum = 0.0133631 (50 samples)
Accepted packet rate average = 0.00999631 (50 samples)
	minimum = 0 (50 samples)
	maximum = 0.159941 (50 samples)
Injected flit rate average = 0.00999696 (50 samples)
	minimum = 0.00661981 (50 samples)
	maximum = 0.0133631 (50 samples)
Accepted flit rate average = 0.00999631 (50 samples)
	minimum = 0 (50 samples)
	maximum = 0.159941 (50 samples)
Injected packet size average = 1 (50 samples)
Accepted packet size average = 1 (50 samples)
Hops average = 4.00663 (50 samples)
Total run time 1.14033
