BEGIN Configuration File: /tmp/tmpwn12q1xr.cfg
topology = mesh;
k = 4;
n = 2;
routing_function = planar_adapt;
num_vcs = 4;
vc_buf_size = 4;
wait_for_tail_credit = 1;
vc_allocator = islip;
sw_allocator = islip;
alloc_iters = 1;
credit_delay = 2;
routing_delay = 1;
vc_alloc_delay = 1;
sw_alloc_delay = 1;
input_speedup = 2;
output_speedup = 1;
internal_speedup = 1.0;
traffic = hotspot;
packet_size = 1;
sim_type = latency;
injection_rate = 0.01;
warmup_periods = 3;
sample_period = 500;
sim_count = 50;
seed = 0;
link_failures = 1;
fail_seed = 101;

END Configuration File: /tmp/tmpwn12q1xr.cfg
failure at node 14, channel 0 (1/1)
Class 0:
Packet latency average = 22.5443
	minimum = 7
	maximum = 44
Network latency average = 22.5443
	minimum = 7
	maximum = 44
Slowest packet = 48
Flit latency average = 22.5443
	minimum = 7
	maximum = 44
Slowest flit = 48
Fragmentation average = 0
	minimum = 0
	maximum = 0
Injected packet rate average = 0.010375
	minimum = 0.004 (at node 5)
	maximum = 0.016 (at node 9)
Accepted packet rate average = 0.009875
	minimum = 0 (at node 0)
	maximum = 0.158 (at node 12)
Injected flit rate average = 0.010375
	minimum = 0.004 (at node 5)
	maximum = 0.016 (at node 9)
Accepted flit rate average= 0.009875
	minimum = 0 (at node 0)
	maximum = 0.158 (at node 12)
Injected packet length average = 1
Accepted packet length average = 1
Total in-flight flits = 4 (0 measured)
latency change    = 1
throughput change = 1
Class 0:
Packet latency average = 22.3182
	minimum = 7
	maximum = 44
Network latency average = 22.3182
	minimum = 7
	maximum = 44
Slowest packet = 48
Flit latency average = 22.3182
	minimum = 7
	maximum = 44
Slowest flit = 48
Fragmentation average = 0
	minimum = 0
	maximum = 0
Injected packet rate average = 0.00975
	minimum = 0.004 (at node 11)
	maximum = 0.014 (at node 13)
Accepted packet rate average = 0.009625
	minimum = 0 (at node 0)
	maximum = 0.154 (at node 12)
Injected flit rate average = 0.00975
	minimum = 0.004 (at node 11)
	maximum = 0.014 (at node 13)
Accepted flit rate average= 0.009625
	minimum = 0 (at node 0)
	maximum = 0.154 (at node 12)
Injected packet length average = 1
Accepted packet length average = 1
Total in-flight flits = 2 (0 measured)
latency change    = 0.0101317
throughput change = 0.025974
Class 0:
Packet latency average = 24.9412
	minimum = 7
	maximum = 48
Network latency average = 24.9412
	minimum = 7
	maximum = 48
Slowest packet = 213
Flit latency average = 24.9412
	minimum = 7
	maximum = 48
Slowest flit = 213
Fragmentation average = 0
	minimum = 0
	maximum = 0
Injected packet rate average = 0.00925
	minimum = 0.002 (at node 11)
	maximum = 0.016 (at node 10)
Accepted packet rate average = 0.0085
	minimum = 0 (at node 0)
	maximum = 0.136 (at node 12)
Injected flit rate average = 0.00925
	minimum = 0.002 (at node 11)
	maximum = 0.016 (at node 10)
Accepted flit rate average= 0.0085
	minimum = 0 (at node 0)
	maximum = 0.136 (at node 12)
Injected packet length average = 1
Accepted packet length average = 1
Total in-flight flits = 8 (0 measured)
latency change    = 0.105167
throughput change = 0.132353
Warmed up ...Time used is 1500 cycles
Class 0:
Packet latency average = 23.56
	minimum = 7
	maximum = 58
Network latency average = 23.56
	minimum = 7
	maximum = 58
Slowest packet = 232
Flit latency average = 24.6386
	minimum = 7
	maximum = 60
Slowest flit = 229
Fragmentation average = 0
	minimum = 0
	maximum = 0
Injected packet rate average = 0.00975
	minimum = 0.004 (at node 3)
	maximum = 0.018 (at node 8)
Accepted packet rate average = 0.010375
	minimum = 0 (at node 0)
	maximum = 0.166 (at node 12)
Injected flit rate average = 0.00975
	minimum = 0.004 (at node 3)
	maximum = 0.018 (at node 8)
Accepted flit rate average= 0.010375
	minimum = 0 (at node 0)
	maximum = 0.166 (at node 12)
Injected packet length average = 1
Accepted packet length average = 1
Total in-flight flits = 3 (3 measured)
latency change    = 0.0586238
throughput change = 0.180723
Class 0:
Packet latency average = 23.4379
	minimum = 7
	maximum = 58
Network latency average = 23.4379
	minimum = 7
	maximum = 58
Slowest packet = 232
Flit latency average = 24
	minimum = 7
	maximum = 60
Slowest flit = 229
Fragmentation average = 0
	minimum = 0
	maximum = 0
Injected packet rate average = 0.0096875
	minimum = 0.005 (at node 7)
	maximum = 0.016 (at node 13)
Accepted packet rate average = 0.0100625
	minimum = 0 (at node 0)
	maximum = 0.161 (at node 12)
Injected flit rate average = 0.0096875
	minimum = 0.005 (at node 7)
	maximum = 0.016 (at node 13)
Accepted flit rate average= 0.0100625
	minimum = 0 (at node 0)
	maximum = 0.161 (at node 12)
Injected packet length average = 1
Accepted packet length average = 1
Total in-flight flits = 2 (2 measured)
latency change    = 0.00520915
throughput change = 0.0310559
Class 0:
Packet latency average = 23.6329
	minimum = 7
	maximum = 58
Network latency average = 23.6329
	minimum = 7
	maximum = 58
Slowest packet = 232
Flit latency average = 23.9959
	minimum = 7
	maximum = 60
Slowest flit = 229
Fragmentation average = 0
	minimum = 0
	maximum = 0
Injected packet rate average = 0.00991667
	minimum = 0.00733333 (at node 7)
	maximum = 0.0133333 (at node 13)
Accepted packet rate average = 0.0102083
	minimum = 0 (at node 0)
	maximum = 0.163333 (at node 12)
Injected flit rate average = 0.00991667
	minimum = 0.00733333 (at node 7)
	maximum = 0.0133333 (at node 13)
Accepted flit rate average= 0.0102083
	minimum = 0 (at node 0)
	maximum = 0.163333 (at node 12)
Injected packet length average = 1
Accepted packet length average = 1
Total in-flight flits = 1 (1 measured)
latency change    = 0.00825133
throughput change = 0.0142857
Class 0:
Packet latency average = 24.2588
	minimum = 7
	maximum = 66
Network latency average = 24.2588
	minimum = 7
	maximum = 66
Slowest packet = 519
Flit latency average = 24.5202
	minimum = 7
	maximum = 66
Slowest flit = 519
Fragmentation average = 0
	minimum = 0
	maximum = 0
Injected packet rate average = 0.00990625
	minimum = 0.0075 (at node 1)
	maximum = 0.013 (at node 8)
Accepted packet rate average = 0.0100313
	minimum = 0 (at node 0)
	maximum = 0.1605 (at node 12)
Injected flit rate average = 0.00990625
	minimum = 0.0075 (at node 1)
	maximum = 0.013 (at node 8)
Accepted flit rate average= 0.0100313
	minimum = 0 (at node 0)
	maximum = 0.1605 (at node 12)
Injected packet length average = 1
Accepted packet length average = 1
Total in-flight flits = 4 (4 measured)
latency change    = 0.0257999
throughput change = 0.0176532
Draining all recorded packets ...
Draining remaining packets ...
Time taken is 3559 cycles
Class 0:
Packet latency average = 23.4194
	minimum = 7
	maximum = 49
Network latency average = 23.4194
	minimum = 7
	maximum = 49
Slowest packet = 581
Flit latency average = 23.4194
	minimum = 7
	maximum = 49
Slowest flit = 581
Fragmentation average = 0
	minimum = 0
	maximum = 0
Injected packet rate average = 0.008
	minimum = 0.002 (at node 5)
	maximum = 0.016 (at node 11)
Accepted packet rate average = 0.00775
	minimum = 0 (at node 0)
	maximum = 0.124 (at node 12)
Injected flit rate average = 0.008
	minimum = 0.002 (at node 5)
	maximum = 0.016 (at node 11)
Accepted flit rate average= 0.00775
	minimum = 0 (at node 0)
	maximum = 0.124 (at node 12)
Injected packet length average = 1
Accepted packet length average = 1
Total in-flight flits = 2 (0 measured)
latency change    = 1
throughput change = 1
Class 0:
Packet latency average = 24.1812
	minimum = 7
	maximum = 59
Network latency average = 24.1812
	minimum = 7
	maximum = 59
Slowest packet = 650
Flit latency average = 24.1812
	minimum = 7
	maximum = 59
Slowest flit = 650
Fragmentation average = 0
	minimum = 0
	maximum = 0
Injected packet rate average = 0.009
	minimum = 0.006 (at node 5)
	maximum = 0.017 (at node 10)
Accepted packet rate average = 0.008625
	minimum = 0 (at node 0)
	maximum = 0.138 (at node 12)
Injected flit rate average = 0.009
	minimum = 0.006 (at node 5)
	maximum = 0.017 (at node 10)
Accepted flit rate average= 0.008625
	minimum = 0 (at node 0)
	maximum = 0.138 (at node 12)
Injected packet length average = 1
Accepted packet length average = 1
Total in-flight flits = 6 (0 measured)
latency change    = 0.0315041
throughput change = 0.101449
Class 0:
Packet latency average = 24.3239
	minimum = 7
	maximum = 46
Network latency average = 24.3239
	minimum = 7
	maximum = 46
Slowest packet = 698
Flit latency average = 24.3239
	minimum = 7
	maximum = 46
Slowest flit = 698
Fragmentation average = 0
	minimum = 0
	maximum = 0
Injected packet rate average = 0.009
	minimum = 0.004 (at node 9)
	maximum = 0.016 (at node 6)
Accepted packet rate average = 0.008875
	minimum = 0 (at node 0)
	maximum = 0.142 (at node 12)
Injected flit rate average = 0.009
	minimum = 0.004 (at node 9)
	maximum = 0.016 (at node 6)
Accepted flit rate average= 0.008875
	minimum = 0 (at node 0)
	maximum = 0.142 (at node 12)
Injected packet length average = 1
Accepted packet length average = 1
Total in-flight flits = 7 (0 measured)
latency change    = 0.00587011
throughput change = 0.028169
Warmed up ...Time used is 1500 cycles
Class 0:
Packet latency average = 22.75
	minimum = 7
	maximum = 45
Network latency average = 22.75
	minimum = 7
	maximum = 45
Slowest packet = 838
Flit latency average = 23.0723
	minimum = 7
	maximum = 45
Slowest flit = 838
Fragmentation average = 0
	minimum = 0
	maximum = 0
Injected packet rate average = 0.010125
	minimum = 0.002 (at node 2)
	maximum = 0.02 (at node 15)
Accepted packet rate average = 0.010375
	minimum = 0 (at node 0)
	maximum = 0.166 (at node 12)
Injected flit rate average = 0.010125
	minimum = 0.002 (at node 2)
	maximum = 0.02 (at node 15)
Accepted flit rate average= 0.010375
	minimum = 0 (at node 0)
	maximum = 0.166 (at node 12)
Injected packet length average = 1
Accepted packet length average = 1
Total in-flight flits = 5 (5 measured)
latency change    = 0.0691843
throughput change = 0.144578
Class 0:
Packet latency average = 22.2252
	minimum = 7
	maximum = 45
Network latency average = 22.2252
	minimum = 7
	maximum = 45
Slowest packet = 838
Flit latency average = 22.4177
	minimum = 7
	maximum = 45
Slowest flit = 838
Fragmentation average = 0
	minimum = 0
	maximum = 0
Injected packet rate average = 0.0098125
	minimum = 0.004 (at node 6)
	maximum = 0.015 (at node 3)
Accepted packet rate average = 0.009875
	minimum = 0 (at node 0)
	maximum = 0.158 (at node 12)
Injected flit rate average = 0.0098125
	minimum = 0.004 (at node 6)
	maximum = 0.015 (at node 3)
Accepted flit rate average= 0.009875
	minimum = 0 (at node 0)
	maximum = 0.158 (at node 12)
Injected packet length average = 1
Accepted packet length average = 1
Total in-flight flits = 6 (6 measured)
latency change    = 0.0236144
throughput change = 0.0506329
Class 0:
Packet latency average = 23.4359
	minimum = 7
	maximum = 51
Network latency average = 23.4359
	minimum = 7
	maximum = 51
Slowest packet = 982
Flit latency average = 23.527
	minimum = 7
	maximum = 51
Slowest flit = 982
Fragmentation average = 0
	minimum = 0
	maximum = 0
Injected packet rate average = 0.0102917
	minimum = 0.006 (at node 10)
	maximum = 0.018 (at node 3)
Accepted packet rate average = 0.0100417
	minimum = 0 (at node 0)
	maximum = 0.160667 (at node 12)
Injected flit rate average = 0.0102917
	minimum = 0.006 (at node 10)
	maximum = 0.018 (at node 3)
Accepted flit rate average= 0.0100417
	minimum = 0 (at node 0)
	maximum = 0.160667 (at node 12)
Injected packet length average = 1
Accepted packet length average = 1
Total in-flight flits = 13 (13 measured)
latency change    = 0.0516614
throughput change = 0.0165975
Class 0:
Packet latency average = 24.4349
	minimum = 7
	maximum = 101
Network latency average = 24.4349
	minimum = 7
	maximum = 101
Slowest packet = 1007
Flit latency average = 24.4814
	minimum = 7
	maximum = 101
Slowest flit = 1007
Fragmentation average = 0
	minimum = 0
	maximum = 0
Injected packet rate average = 0.00996875
	minimum = 0.006 (at node 2)
	maximum = 0.0165 (at node 13)
Accepted packet rate average = 0.0100625
	minimum = 0 (at node 0)
	maximum = 0.161 (at node 12)
Injected flit rate average = 0.00996875
	minimum = 0.006 (at node 2)
	maximum = 0.0165 (at node 13)
Accepted flit rate average= 0.0100625
	minimum = 0 (at node 0)
	maximum = 0.161 (at node 12)
Injected packet length average = 1
Accepted packet length average = 1
Total in-flight flits = 4 (4 measured)
latency change    = 0.0408851
throughput change = 0.00207039
Class 0:
Packet latency average = 24.6122
	minimum = 7
	maximum = 101
Network latency average = 24.6122
	minimum = 7
	maximum = 101
Slowest packet = 1007
Flit latency average = 24.6466
	minimum = 7
	maximum = 101
Slowest flit = 1007
Fragmentation average = 0
	minimum = 0
	maximum = 0
Injected packet rate average = 0.01
	minimum = 0.0072 (at node 2)
	maximum = 0.0156 (at node 13)
Accepted packet rate average = 0.009975
	minimum = 0 (at node 0)
	maximum = 0.1596 (at node 12)
Injected flit rate average = 0.01
	minimum = 0.0072 (at node 2)
	maximum = 0.0156 (at node 13)
Accepted flit rate average= 0.009975
	minimum = 0 (at node 0)
	maximum = 0.1596 (at node 12)
Injected packet length average = 1
Accepted packet length average = 1
Total in-flight flits = 8 (8 measured)
latency change    = 0.00720472
throughput change = 0.00877193
Class 0:
Packet latency average = 24.9814
	minimum = 7
	maximum = 101
Network latency average = 24.9814
	minimum = 7
	maximum = 101
Slowest packet = 1007
Flit latency average = 25.0041
	minimum = 7
	maximum = 101
Slowest flit = 1007
Fragmentation average = 0
	minimum = 0
	maximum = 0
Injected packet rate average = 0.0102083
	minimum = 0.007 (at node 2)
	maximum = 0.0156667 (at node 13)
Accepted packet rate average = 0.01025
	minimum = 0 (at node 0)
	maximum = 0.164 (at node 12)
Injected flit rate average = 0.0102083
	minimum = 0.007 (at node 2)
	maximum = 0.0156667 (at node 13)
Accepted flit rate average= 0.01025
	minimum = 0 (at node 0)
	maximum = 0.164 (at node 12)
Injected packet length average = 1
Accepted packet length average = 1
Total in-flight flits = 5 (5 measured)
latency change    = 0.0147789
throughput change = 0.0268293
Draining all recorded packets ...
Draining remaining packets ...
Time taken is 4550 cycles
Class 0:
Packet latency average = 25.0737
	minimum = 7
	maximum = 60
Network latency average = 25.0737
	minimum = 7
	maximum = 60
Slowest packet = 1322
Flit latency average = 25.0737
	minimum = 7
	maximum = 60
Slowest flit = 1322
Fragmentation average = 0
	minimum = 0
	maximum = 0
Injected packet rate average = 0.012625
	minimum = 0.006 (at node 8)
	maximum = 0.018 (at node 0)
Accepted packet rate average = 0.011875
	minimum = 0 (at node 0)
	maximum = 0.19 (at node 12)
Injected flit rate average = 0.012625
	minimum = 0.006 (at node 8)
	maximum = 0.018 (at node 0)
Accepted flit rate average= 0.011875
	minimum = 0 (at node 0)
	maximum = 0.19 (at node 12)
Injected packet length average = 1
Accepted packet length average = 1
Total in-flight flits = 6 (0 measured)
latency change    = 1
throughput change = 1
Class 0:
Packet latency average = 24.4402
	minimum = 7
	maximum = 60
Network latency average = 24.4402
	minimum = 7
	maximum = 60
Slowest packet = 1322
Flit latency average = 24.4402
	minimum = 7
	maximum = 60
Slowest flit = 1322
Fragmentation average = 0
	minimum = 0
	maximum = 0
Injected packet rate average = 0.011625
	minimum = 0.009 (at node 8)
	maximum = 0.015 (at node 1)
Accepted packet rate average = 0.0115
	minimum = 0 (at node 0)
	maximum = 0.184 (at node 12)
Injected flit rate average = 0.011625
	minimum = 0.009 (at node 8)
	maximum = 0.015 (at node 1)
Accepted flit rate average= 0.0115
	minimum = 0 (at node 0)
	maximum = 0.184 (at node 12)
Injected packet length average = 1
Accepted packet length average = 1
Total in-flight flits = 2 (0 measured)
latency change    = 0.025919
throughput change = 0.0326087
Class 0:
Packet latency average = 24.1974
	minimum = 7
	maximum = 45
Network latency average = 24.1974
	minimum = 7
	maximum = 45
Slowest packet = 1467
Flit latency average = 24.1974
	minimum = 7
	maximum = 45
Slowest flit = 1467
Fragmentation average = 0
	minimum = 0
	maximum = 0
Injected packet rate average = 0.0095
	minimum = 0.002 (at node 5)
	maximum = 0.02 (at node 7)
Accepted packet rate average = 0.0095
	minimum = 0 (at node 0)
	maximum = 0.152 (at node 12)
Injected flit rate average = 0.0095
	minimum = 0.002 (at node 5)
	maximum = 0.02 (at node 7)
Accepted flit rate average= 0.0095
	minimum = 0 (at node 0)
	maximum = 0.152 (at node 12)
Injected packet length average = 1
Accepted packet length average = 1
Total in-flight flits = 2 (0 measured)
latency change    = 0.0100362
throughput change = 0.210526
Warmed up ...Time used is 1500 cycles
Class 0:
Packet latency average = 22.7231
	minimum = 7
	maximum = 43
Network latency average = 22.7231
	minimum = 7
	maximum = 43
Slowest packet = 1578
Flit latency average = 23
	minimum = 7
	maximum = 43
Slowest flit = 1578
Fragmentation average = 0
	minimum = 0
	maximum = 0
Injected packet rate average = 0.0085
	minimum = 0.004 (at node 2)
	maximum = 0.016 (at node 3)
Accepted packet rate average = 0.008375
	minimum = 0 (at node 0)
	maximum = 0.134 (at node 12)
Injected flit rate average = 0.0085
	minimum = 0.004 (at node 2)
	maximum = 0.016 (at node 3)
Accepted flit rate average= 0.008375
	minimum = 0 (at node 0)
	maximum = 0.134 (at node 12)
Injected packet length average = 1
Accepted packet length average = 1
Total in-flight flits = 3 (3 measured)
latency change    = 0.0648808
throughput change = 0.134328
Class 0:
Packet latency average = 23.1458
	minimum = 7
	maximum = 43
Network latency average = 23.1458
	minimum = 7
	maximum = 43
Slowest packet = 1578
Flit latency average = 23.2671
	minimum = 7
	maximum = 43
Slowest flit = 1578
Fragmentation average = 0
	minimum = 0
	maximum = 0
Injected packet rate average = 0.00925
	minimum = 0.004 (at node 2)
	maximum = 0.013 (at node 5)
Accepted packet rate average = 0.009125
	minimum = 0 (at node 0)
	maximum = 0.146 (at node 12)
Injected flit rate average = 0.00925
	minimum = 0.004 (at node 2)
	maximum = 0.013 (at node 5)
Accepted flit rate average= 0.009125
	minimum = 0 (at node 0)
	maximum = 0.146 (at node 12)
Injected packet length average = 1
Accepted packet length average = 1
Total in-flight flits = 4 (4 measured)
latency change    = 0.0182649
throughput change = 0.0821918
Class 0:
Packet latency average = 23.4509
	minimum = 7
	maximum = 48
Network latency average = 23.4509
	minimum = 7
	maximum = 48
Slowest packet = 1707
Flit latency average = 23.5265
	minimum = 7
	maximum = 48
Slowest flit = 1707
Fragmentation average = 0
	minimum = 0
	maximum = 0
Injected packet rate average = 0.0095
	minimum = 0.00533333 (at node 2)
	maximum = 0.0133333 (at node 1)
Accepted packet rate average = 0.00941667
	minimum = 0 (at node 0)
	maximum = 0.150667 (at node 12)
Injected flit rate average = 0.0095
	minimum = 0.00533333 (at node 2)
	maximum = 0.0133333 (at node 1)
Accepted flit rate average= 0.00941667
	minimum = 0 (at node 0)
	maximum = 0.150667 (at node 12)
Injected packet length average = 1
Accepted packet length average = 1
Total in-flight flits = 4 (4 measured)
latency change    = 0.0130084
throughput change = 0.0309735
Class 0:
Packet latency average = 24.0159
	minimum = 7
	maximum = 53
Network latency average = 24.0159
	minimum = 7
	maximum = 53
Slowest packet = 1828
Flit latency average = 24.0665
	minimum = 7
	maximum = 53
Slowest flit = 1828
Fragmentation average = 0
	minimum = 0
	maximum = 0
Injected packet rate average = 0.00984375
	minimum = 0.0085 (at node 2)
	maximum = 0.0125 (at node 1)
Accepted packet rate average = 0.009875
	minimum = 0 (at node 0)
	maximum = 0.158 (at node 12)
Injected flit rate average = 0.00984375
	minimum = 0.0085 (at node 2)
	maximum = 0.0125 (at node 1)
Accepted flit rate average= 0.009875
	minimum = 0 (at node 0)
	maximum = 0.158 (at node 12)
Injected packet length average = 1
Accepted packet length average = 1
Total in-flight flits = 1 (1 measured)
latency change    = 0.0235273
throughput change = 0.0464135
Class 0:
Packet latency average = 24.0177
	minimum = 7
	maximum = 54
Network latency average = 24.0177
	minimum = 7
	maximum = 54
Slowest packet = 1897
Flit latency average = 24.0579
	minimum = 7
	maximum = 54
Slowest flit = 1897
Fragmentation average = 0
	minimum = 0
	maximum = 0
Injected packet rate average = 0.009975
	minimum = 0.0084 (at node 6)
	maximum = 0.012 (at node 12)
Accepted packet rate average = 0.009925
	minimum = 0 (at node 0)
	maximum = 0.1588 (at node 12)
Injected flit rate average = 0.009975
	minimum = 0.0084 (at node 6)
	maximum = 0.012 (at node 12)
Accepted flit rate average= 0.009925
	minimum = 0 (at node 0)
	maximum = 0.1588 (at node 12)
Injected packet length average = 1
Accepted packet length average = 1
Total in-flight flits = 4 (4 measured)
latency change    = 7.48594e-05
throughput change = 0.00503778
Draining all recorded packets ...
Draining remaining packets ...
Time taken is 4044 cycles
Class 0:
Packet latency average = 27.3412
	minimum = 7
	maximum = 81
Network latency average = 27.3412
	minimum = 7
	maximum = 81
Slowest packet = 1962
Flit latency average = 27.3412
	minimum = 7
	maximum = 81
Slowest flit = 1962
Fragmentation average = 0
	minimum = 0
	maximum = 0
Injected packet rate average = 0.010875
	minimum = 0.004 (at node 9)
	maximum = 0.018 (at node 2)
Accepted packet rate average = 0.010625
	minimum = 0 (at node 0)
	maximum = 0.17 (at node 12)
Injected flit rate average = 0.010875
	minimum = 0.004 (at node 9)
	maximum = 0.018 (at node 2)
Accepted flit rate average= 0.010625
	minimum = 0 (at node 0)
	maximum = 0.17 (at node 12)
Injected packet length average = 1
Accepted packet length average = 1
Total in-flight flits = 2 (0 measured)
latency change    = 1
throughput change = 1
Class 0:
Packet latency average = 25.681
	minimum = 7
	maximum = 81
Network latency average = 25.681
	minimum = 7
	maximum = 81
Slowest packet = 1962
Flit latency average = 25.681
	minimum = 7
	maximum = 81
Slowest flit = 1962
Fragmentation average = 0
	minimum = 0
	maximum = 0
Injected packet rate average = 0.0105625
	minimum = 0.006 (at node 10)
	maximum = 0.014 (at node 2)
Accepted packet rate average = 0.0101875
	minimum = 0 (at node 0)
	maximum = 0.163 (at node 12)
Injected flit rate average = 0.0105625
	minimum = 0.006 (at node 10)
	maximum = 0.014 (at node 2)
Accepted flit rate average= 0.0101875
	minimum = 0 (at node 0)
	maximum = 0.163 (at node 12)
Injected packet length average = 1
Accepted packet length average = 1
Total in-flight flits = 6 (0 measured)
latency change    = 0.0646469
throughput change = 0.0429448
Class 0:
Packet latency average = 25.9011
	minimum = 7
	maximum = 65
Network latency average = 25.9011
	minimum = 7
	maximum = 65
Slowest packet = 2139
Flit latency average = 25.9011
	minimum = 7
	maximum = 65
Slowest flit = 2139
Fragmentation average = 0
	minimum = 0
	maximum = 0
Injected packet rate average = 0.011125
	minimum = 0.002 (at node 14)
	maximum = 0.02 (at node 12)
Accepted packet rate average = 0.011375
	minimum = 0 (at node 0)
	maximum = 0.182 (at node 12)
Injected flit rate average = 0.011125
	minimum = 0.002 (at node 14)
	maximum = 0.02 (at node 12)
Accepted flit rate average= 0.011375
	minimum = 0 (at node 0)
	maximum = 0.182 (at node 12)
Injected packet length average = 1
Accepted packet length average = 1
Total in-flight flits = 4 (0 measured)
latency change    = 0.00849838
throughput change = 0.104396
Warmed up ...Time used is 1500 cycles
Class 0:
Packet latency average = 24.5455
	minimum = 7
	maximum = 46
Network latency average = 24.5455
	minimum = 7
	maximum = 46
Slowest packet = 2202
Flit latency average = 24.8286
	minimum = 7
	maximum = 46
Slowest flit = 2202
Fragmentation average = 0
	minimum = 0
	maximum = 0
Injected packet rate average = 0.00825
	minimum = 0.004 (at node 2)
	maximum = 0.012 (at node 7)
Accepted packet rate average = 0.00875
	minimum = 0 (at node 0)
	maximum = 0.14 (at node 12)
Injected flit rate average = 0.00825
	minimum = 0.004 (at node 2)
	maximum = 0.012 (at node 7)
Accepted flit rate average= 0.00875
	minimum = 0 (at node 0)
	maximum = 0.14 (at node 12)
Injected packet length average = 1
Accepted packet length average = 1
Total in-flight flits = 0 (0 measured)
latency change    = 0.05523
throughput change = 0.3
Class 0:
Packet latency average = 25.5486
	minimum = 7
	maximum = 71
Network latency average = 25.5486
	minimum = 7
	maximum = 71
Slowest packet = 2286
Flit latency average = 25.6554
	minimum = 7
	maximum = 71
Slowest flit = 2286
Fragmentation average = 0
	minimum = 0
	maximum = 0
Injected packet rate average = 0.009
	minimum = 0.007 (at node 1)
	maximum = 0.012 (at node 9)
Accepted packet rate average = 0.00925
	minimum = 0 (at node 0)
	maximum = 0.148 (at node 12)
Injected flit rate average = 0.009
	minimum = 0.007 (at node 1)
	maximum = 0.012 (at node 9)
Accepted flit rate average= 0.00925
	minimum = 0 (at node 0)
	maximum = 0.148 (at node 12)
Injected packet length average = 1
Accepted packet length average = 1
Total in-flight flits = 0 (0 measured)
latency change    = 0.0392646
throughput change = 0.0540541
Class 0:
Packet latency average = 24.7674
	minimum = 7
	maximum = 71
Network latency average = 24.7674
	minimum = 7
	maximum = 71
Slowest packet = 2286
Flit latency average = 24.8539
	minimum = 7
	maximum = 71
Slowest flit = 2286
Fragmentation average = 0
	minimum = 0
	maximum = 0
Injected packet rate average = 0.00908333
	minimum = 0.006 (at node 12)
	maximum = 0.012 (at node 7)
Accepted packet rate average = 0.009125
	minimum = 0 (at node 0)
	maximum = 0.146 (at node 12)
Injected flit rate average = 0.00908333
	minimum = 0.006 (at node 12)
	maximum = 0.012 (at node 7)
Accepted flit rate average= 0.009125
	minimum = 0 (at node 0)
	maximum = 0.146 (at node 12)
Injected packet length average = 1
Accepted packet length average = 1
Total in-flight flits = 3 (3 measured)
latency change    = 0.0315402
throughput change = 0.0136986
Class 0:
Packet latency average = 24.3913
	minimum = 7
	maximum = 71
Network latency average = 24.3913
	minimum = 7
	maximum = 71
Slowest packet = 2286
Flit latency average = 24.4587
	minimum = 7
	maximum = 71
Slowest flit = 2286
Fragmentation average = 0
	minimum = 0
	maximum = 0
Injected packet rate average = 0.009375
	minimum = 0.0065 (at node 3)
	maximum = 0.012 (at node 7)
Accepted packet rate average = 0.00946875
	minimum = 0 (at node 0)
	maximum = 0.1515 (at node 12)
Injected flit rate average = 0.009375
	minimum = 0.0065 (at node 3)
	maximum = 0.012 (at node 7)
Accepted flit rate average= 0.00946875
	minimum = 0 (at node 0)
	maximum = 0.1515 (at node 12)
Injected packet length average = 1
Accepted packet length average = 1
Total in-flight flits = 1 (1 measured)
latency change    = 0.015421
throughput change = 0.0363036
Class 0:
Packet latency average = 24.1444
	minimum = 7
	maximum = 71
Network latency average = 24.1444
	minimum = 7
	maximum = 71
Slowest packet = 2286
Flit latency average = 24.2
	minimum = 7
	maximum = 71
Slowest flit = 2286
Fragmentation average = 0
	minimum = 0
	maximum = 0
Injected packet rate average = 0.009575
	minimum = 0.0072 (at node 0)
	maximum = 0.012 (at node 5)
Accepted packet rate average = 0.009625
	minimum = 0 (at node 0)
	maximum = 0.154 (at node 12)
Injected flit rate average = 0.009575
	minimum = 0.0072 (at node 0)
	maximum = 0.012 (at node 5)
Accepted flit rate average= 0.009625
	minimum = 0 (at node 0)
	maximum = 0.154 (at node 12)
Injected packet length average = 1
Accepted packet length average = 1
Total in-flight flits = 2 (2 measured)
latency change    = 0.010228
throughput change = 0.0162338
Draining all recorded packets ...
Draining remaining packets ...
Time taken is 4067 cycles
Class 0:
Packet latency average = 25.0779
	minimum = 7
	maximum = 69
Network latency average = 25.0779
	minimum = 7
	maximum = 69
Slowest packet = 2583
Flit latency average = 25.0779
	minimum = 7
	maximum = 69
Slowest flit = 2583
Fragmentation average = 0
	minimum = 0
	maximum = 0
Injected packet rate average = 0.01025
	minimum = 0.006 (at node 7)
	maximum = 0.02 (at node 4)
Accepted packet rate average = 0.009625
	minimum = 0 (at node 0)
	maximum = 0.154 (at node 12)
Injected flit rate average = 0.01025
	minimum = 0.006 (at node 7)
	maximum = 0.02 (at node 4)
Accepted flit rate average= 0.009625
	minimum = 0 (at node 0)
	maximum = 0.154 (at node 12)
Injected packet length average = 1
Accepted packet length average = 1
Total in-flight flits = 5 (0 measured)
latency change    = 1
throughput change = 1
Class 0:
Packet latency average = 24.2981
	minimum = 7
	maximum = 69
Network latency average = 24.2981
	minimum = 7
	maximum = 69
Slowest packet = 2583
Flit latency average = 24.2981
	minimum = 7
	maximum = 69
Slowest flit = 2583
Fragmentation average = 0
	minimum = 0
	maximum = 0
Injected packet rate average = 0.01025
	minimum = 0.005 (at node 7)
	maximum = 0.014 (at node 11)
Accepted packet rate average = 0.0100625
	minimum = 0 (at node 0)
	maximum = 0.161 (at node 12)
Injected flit rate average = 0.01025
	minimum = 0.005 (at node 7)
	maximum = 0.014 (at node 11)
Accepted flit rate average= 0.0100625
	minimum = 0 (at node 0)
	maximum = 0.161 (at node 12)
Injected packet length average = 1
Accepted packet length average = 1
Total in-flight flits = 3 (0 measured)
latency change    = 0.0320924
throughput change = 0.0434783
Class 0:
Packet latency average = 22.5161
	minimum = 7
	maximum = 40
Network latency average = 22.5161
	minimum = 7
	maximum = 40
Slowest packet = 2763
Flit latency average = 22.5161
	minimum = 7
	maximum = 40
Slowest flit = 2763
Fragmentation average = 0
	minimum = 0
	maximum = 0
Injected packet rate average = 0.008125
	minimum = 0.002 (at node 2)
	maximum = 0.016 (at node 11)
Accepted packet rate average = 0.00775
	minimum = 0 (at node 0)
	maximum = 0.124 (at node 12)
Injected flit rate average = 0.008125
	minimum = 0.002 (at node 2)
	maximum = 0.016 (at node 11)
Accepted flit rate average= 0.00775
	minimum = 0 (at node 0)
	maximum = 0.124 (at node 12)
Injected packet length average = 1
Accepted packet length average = 1
Total in-flight flits = 6 (0 measured)
latency change    = 0.0791436
throughput change = 0.298387
Warmed up ...Time used is 1500 cycles
Class 0:
Packet latency average = 21.9054
	minimum = 7
	maximum = 44
Network latency average = 21.9054
	minimum = 7
	maximum = 44
Slowest packet = 2841
Flit latency average = 21.575
	minimum = 7
	maximum = 44
Slowest flit = 2841
Fragmentation average = 0
	minimum = 0
	maximum = 0
Injected packet rate average = 0.0095
	minimum = 0 (at node 10)
	maximum = 0.02 (at node 13)
Accepted packet rate average = 0.01
	minimum = 0 (at node 0)
	maximum = 0.16 (at node 12)
Injected flit rate average = 0.0095
	minimum = 0 (at node 10)
	maximum = 0.02 (at node 13)
Accepted flit rate average= 0.01
	minimum = 0 (at node 0)
	maximum = 0.16 (at node 12)
Injected packet length average = 1
Accepted packet length average = 1
Total in-flight flits = 2 (2 measured)
latency change    = 0.02788
throughput change = 0.225
Class 0:
Packet latency average = 24.0938
	minimum = 7
	maximum = 53
Network latency average = 24.0938
	minimum = 7
	maximum = 53
Slowest packet = 2949
Flit latency average = 23.8554
	minimum = 7
	maximum = 53
Slowest flit = 2949
Fragmentation average = 0
	minimum = 0
	maximum = 0
Injected packet rate average = 0.0103125
	minimum = 0.004 (at node 9)
	maximum = 0.015 (at node 8)
Accepted packet rate average = 0.010375
	minimum = 0 (at node 0)
	maximum = 0.166 (at node 12)
Injected flit rate average = 0.0103125
	minimum = 0.004 (at node 9)
	maximum = 0.015 (at node 8)
Accepted flit rate average= 0.010375
	minimum = 0 (at node 0)
	maximum = 0.166 (at node 12)
Injected packet length average = 1
Accepted packet length average = 1
Total in-flight flits = 5 (5 measured)
latency change    = 0.0908262
throughput change = 0.0361446
Class 0:
Packet latency average = 23.4711
	minimum = 7
	maximum = 53
Network latency average = 23.4711
	minimum = 7
	maximum = 53
Slowest packet = 2949
Flit latency average = 23.316
	minimum = 7
	maximum = 53
Slowest flit = 2949
Fragmentation average = 0
	minimum = 0
	maximum = 0
Injected packet rate average = 0.00945833
	minimum = 0.00266667 (at node 9)
	maximum = 0.0146667 (at node 11)
Accepted packet rate average = 0.009625
	minimum = 0 (at node 0)
	maximum = 0.154 (at node 12)
Injected flit rate average = 0.00945833
	minimum = 0.00266667 (at node 9)
	maximum = 0.0146667 (at node 11)
Accepted flit rate average= 0.009625
	minimum = 0 (at node 0)
	maximum = 0.154 (at node 12)
Injected packet length average = 1
Accepted packet length average = 1
Total in-flight flits = 2 (2 measured)
latency change    = 0.0265279
throughput change = 0.0779221
Class 0:
Packet latency average = 23.8704
	minimum = 7
	maximum = 53
Network latency average = 23.8704
	minimum = 7
	maximum = 53
Slowest packet = 2949
Flit latency average = 23.7459
	minimum = 7
	maximum = 53
Slowest flit = 2949
Fragmentation average = 0
	minimum = 0
	maximum = 0
Injected packet rate average = 0.00946875
	minimum = 0.0045 (at node 9)
	maximum = 0.013 (at node 8)
Accepted packet rate average = 0.00959375
	minimum = 0 (at node 0)
	maximum = 0.1535 (at node 12)
Injected flit rate average = 0.00946875
	minimum = 0.0045 (at node 9)
	maximum = 0.013 (at node 8)
Accepted flit rate average= 0.00959375
	minimum = 0 (at node 0)
	maximum = 0.1535 (at node 12)
Injected packet length average = 1
Accepted packet length average = 1
Total in-flight flits = 2 (2 measured)
latency change    = 0.0167287
throughput change = 0.00325733
Class 0:
Packet latency average = 24.1144
	minimum = 7
	maximum = 53
Network latency average = 24.1144
	minimum = 7
	maximum = 53
Slowest packet = 2949
Flit latency average = 24.008
	minimum = 7
	maximum = 53
Slowest flit = 2949
Fragmentation average = 0
	minimum = 0
	maximum = 0
Injected packet rate average = 0.009275
	minimum = 0.0048 (at node 9)
	maximum = 0.0132 (at node 11)
Accepted packet rate average = 0.009325
	minimum = 0 (at node 0)
	maximum = 0.1492 (at node 12)
Injected flit rate average = 0.009275
	minimum = 0.0048 (at node 9)
	maximum = 0.0132 (at node 11)
Accepted flit rate average= 0.009325
	minimum = 0 (at node 0)
	maximum = 0.1492 (at node 12)
Injected packet length average = 1
Accepted packet length average = 1
Total in-flight flits = 4 (4 measured)
latency change    = 0.0101188
throughput change = 0.0288204
Class 0:
Packet latency average = 23.9358
	minimum = 7
	maximum = 53
Network latency average = 23.9358
	minimum = 7
	maximum = 53
Slowest packet = 2949
Flit latency average = 23.8515
	minimum = 7
	maximum = 53
Slowest flit = 2949
Fragmentation average = 0
	minimum = 0
	maximum = 0
Injected packet rate average = 0.0094375
	minimum = 0.00633333 (at node 2)
	maximum = 0.0116667 (at node 7)
Accepted packet rate average = 0.00954167
	minimum = 0 (at node 0)
	maximum = 0.152667 (at node 12)
Injected flit rate average = 0.0094375
	minimum = 0.00633333 (at node 2)
	maximum = 0.0116667 (at node 7)
Accepted flit rate average= 0.00954167
	minimum = 0 (at node 0)
	maximum = 0.152667 (at node 12)
Injected packet length average = 1
Accepted packet length average = 1
Total in-flight flits = 1 (1 measured)
latency change    = 0.00746164
throughput change = 0.0227074
Draining all recorded packets ...
Draining remaining packets ...
Time taken is 4545 cycles
Class 0:
Packet latency average = 22.9079
	minimum = 7
	maximum = 45
Network latency average = 22.9079
	minimum = 7
	maximum = 45
Slowest packet = 3315
Flit latency average = 22.9079
	minimum = 7
	maximum = 45
Slowest flit = 3315
Fragmentation average = 0
	minimum = 0
	maximum = 0
Injected packet rate average = 0.009625
	minimum = 0.002 (at node 5)
	maximum = 0.016 (at node 7)
Accepted packet rate average = 0.0095
	minimum = 0 (at node 0)
	maximum = 0.152 (at node 12)
Injected flit rate average = 0.009625
	minimum = 0.002 (at node 5)
	maximum = 0.016 (at node 7)
Accepted flit rate average= 0.0095
	minimum = 0 (at node 0)
	maximum = 0.152 (at node 12)
Injected packet length average = 1
Accepted packet length average = 1
Total in-flight flits = 1 (0 measured)
latency change    = 1
throughput change = 1
Class 0:
Packet latency average = 23.325
	minimum = 7
	maximum = 63
Network latency average = 23.325
	minimum = 7
	maximum = 63
Slowest packet = 3368
Flit latency average = 23.325
	minimum = 7
	maximum = 63
Slowest flit = 3368
Fragmentation average = 0
	minimum = 0
	maximum = 0
Injected packet rate average = 0.01025
	minimum = 0.004 (at node 5)
	maximum = 0.018 (at node 12)
Accepted packet rate average = 0.01
	minimum = 0 (at node 0)
	maximum = 0.16 (at node 12)
Injected flit rate average = 0.01025
	minimum = 0.004 (at node 5)
	maximum = 0.018 (at node 12)
Accepted flit rate average= 0.01
	minimum = 0 (at node 0)
	maximum = 0.16 (at node 12)
Injected packet length average = 1
Accepted packet length average = 1
Total in-flight flits = 4 (0 measured)
latency change    = 0.0178823
throughput change = 0.05
Class 0:
Packet latency average = 25.3152
	minimum = 7
	maximum = 55
Network latency average = 25.3152
	minimum = 7
	maximum = 55
Slowest packet = 3441
Flit latency average = 25.3152
	minimum = 7
	maximum = 55
Slowest flit = 3441
Fragmentation average = 0
	minimum = 0
	maximum = 0
Injected packet rate average = 0.01125
	minimum = 0.002 (at node 1)
	maximum = 0.02 (at node 0)
Accepted packet rate average = 0.0115
	minimum = 0 (at node 0)
	maximum = 0.184 (at node 12)
Injected flit rate average = 0.01125
	minimum = 0.002 (at node 1)
	maximum = 0.02 (at node 0)
Accepted flit rate average= 0.0115
	minimum = 0 (at node 0)
	maximum = 0.184 (at node 12)
Injected packet length average = 1
Accepted packet length average = 1
Total in-flight flits = 2 (0 measured)
latency change    = 0.0786174
throughput change = 0.130435
Warmed up ...Time used is 1500 cycles
Class 0:
Packet latency average = 23.039
	minimum = 7
	maximum = 39
Network latency average = 23.039
	minimum = 7
	maximum = 39
Slowest packet = 3529
Flit latency average = 23.2152
	minimum = 7
	maximum = 43
Slowest flit = 3510
Fragmentation average = 0
	minimum = 0
	maximum = 0
Injected packet rate average = 0.01025
	minimum = 0.004 (at node 12)
	maximum = 0.022 (at node 14)
Accepted packet rate average = 0.009875
	minimum = 0 (at node 0)
	maximum = 0.158 (at node 12)
Injected flit rate average = 0.01025
	minimum = 0.004 (at node 12)
	maximum = 0.022 (at node 14)
Accepted flit rate average= 0.009875
	minimum = 0 (at node 0)
	maximum = 0.158 (at node 12)
Injected packet length average = 1
Accepted packet length average = 1
Total in-flight flits = 5 (5 measured)
latency change    = 0.0988003
throughput change = 0.164557
Class 0:
Packet latency average = 23.9559
	minimum = 7
	maximum = 45
Network latency average = 23.9559
	minimum = 7
	maximum = 45
Slowest packet = 3633
Flit latency average = 24.0435
	minimum = 7
	maximum = 45
Slowest flit = 3633
Fragmentation average = 0
	minimum = 0
	maximum = 0
Injected packet rate average = 0.00875
	minimum = 0.005 (at node 2)
	maximum = 0.012 (at node 5)
Accepted packet rate average = 0.008625
	minimum = 0 (at node 0)
	maximum = 0.138 (at node 12)
Injected flit rate average = 0.00875
	minimum = 0.005 (at node 2)
	maximum = 0.012 (at node 5)
Accepted flit rate average= 0.008625
	minimum = 0 (at node 0)
	maximum = 0.138 (at node 12)
Injected packet length average = 1
Accepted packet length average = 1
Total in-flight flits = 4 (4 measured)
latency change    = 0.0382754
throughput change = 0.144928
Class 0:
Packet latency average = 23.6715
	minimum = 7
	maximum = 45
Network latency average = 23.6715
	minimum = 7
	maximum = 45
Slowest packet = 3633
Flit latency average = 23.7321
	minimum = 7
	maximum = 45
Slowest flit = 3633
Fragmentation average = 0
	minimum = 0
	maximum = 0
Injected packet rate average = 0.00879167
	minimum = 0.00466667 (at node 2)
	maximum = 0.016 (at node 11)
Accepted packet rate average = 0.00870833
	minimum = 0 (at node 0)
	maximum = 0.139333 (at node 12)
Injected flit rate average = 0.00879167
	minimum = 0.00466667 (at node 2)
	maximum = 0.016 (at node 11)
Accepted flit rate average= 0.00870833
	minimum = 0 (at node 0)
	maximum = 0.139333 (at node 12)
Injected packet length average = 1
Accepted packet length average = 1
Total in-flight flits = 4 (4 measured)
latency change    = 0.0120138
throughput change = 0.00956938
Class 0:
Packet latency average = 23.484
	minimum = 7
	maximum = 45
Network latency average = 23.484
	minimum = 7
	maximum = 45
Slowest packet = 3633
Flit latency average = 23.53
	minimum = 7
	maximum = 45
Slowest flit = 3633
Fragmentation average = 0
	minimum = 0
	maximum = 0
Injected packet rate average = 0.00896875
	minimum = 0.0055 (at node 2)
	maximum = 0.0145 (at node 11)
Accepted packet rate average = 0.00884375
	minimum = 0 (at node 0)
	maximum = 0.1415 (at node 12)
Injected flit rate average = 0.00896875
	minimum = 0.0055 (at node 2)
	maximum = 0.0145 (at node 11)
Accepted flit rate average= 0.00884375
	minimum = 0 (at node 0)
	maximum = 0.1415 (at node 12)
Injected packet length average = 1
Accepted packet length average = 1
Total in-flight flits = 6 (6 measured)
latency change    = 0.00798467
throughput change = 0.0153121
Class 0:
Packet latency average = 24.0718
	minimum = 7
	maximum = 47
Network latency average = 24.0718
	minimum = 7
	maximum = 47
Slowest packet = 3847
Flit latency average = 24.1044
	minimum = 7
	maximum = 47
Slowest flit = 3847
Fragmentation average = 0
	minimum = 0
	maximum = 0
Injected packet rate average = 0.00905
	minimum = 0.006 (at node 2)
	maximum = 0.0144 (at node 11)
Accepted packet rate average = 0.0091
	minimum = 0 (at node 0)
	maximum = 0.1456 (at node 12)
Injected flit rate average = 0.00905
	minimum = 0.006 (at node 2)
	maximum = 0.0144 (at node 11)
Accepted flit rate average= 0.0091
	minimum = 0 (at node 0)
	maximum = 0.1456 (at node 12)
Injected packet length average = 1
Accepted packet length average = 1
Total in-flight flits = 0 (0 measured)
latency change    = 0.0244201
throughput change = 0.0281593
Draining all recorded packets ...
Draining remaining packets ...
Time taken is 4022 cycles
Class 0:
Packet latency average = 21.3429
	minimum = 7
	maximum = 37
Network latency average = 21.3429
	minimum = 7
	maximum = 37
Slowest packet = 3882
Flit latency average = 21.3429
	minimum = 7
	maximum = 37
Slowest flit = 3882
Fragmentation average = 0
	minimum = 0
	maximum = 0
Injected packet rate average = 0.009125
	minimum = 0 (at node 10)
	maximum = 0.016 (at node 13)
Accepted packet rate average = 0.00875
	minimum = 0 (at node 0)
	maximum = 0.14 (at node 12)
Injected flit rate average = 0.009125
	minimum = 0 (at node 10)
	maximum = 0.016 (at node 13)
Accepted flit rate average= 0.00875
	minimum = 0 (at node 0)
	maximum = 0.14 (at node 12)
Injected packet length average = 1
Accepted packet length average = 1
Total in-flight flits = 3 (0 measured)
latency change    = 1
throughput change = 1
Class 0:
Packet latency average = 23.8086
	minimum = 7
	maximum = 45
Network latency average = 23.8086
	minimum = 7
	maximum = 45
Slowest packet = 3987
Flit latency average = 23.8086
	minimum = 7
	maximum = 45
Slowest flit = 3987
Fragmentation average = 0
	minimum = 0
	maximum = 0
Injected packet rate average = 0.01075
	minimum = 0.004 (at node 12)
	maximum = 0.017 (at node 11)
Accepted packet rate average = 0.010125
	minimum = 0 (at node 0)
	maximum = 0.162 (at node 12)
Injected flit rate average = 0.01075
	minimum = 0.004 (at node 12)
	maximum = 0.017 (at node 11)
Accepted flit rate average= 0.010125
	minimum = 0 (at node 0)
	maximum = 0.162 (at node 12)
Injected packet length average = 1
Accepted packet length average = 1
Total in-flight flits = 10 (0 measured)
latency change    = 0.103567
throughput change = 0.135802
Class 0:
Packet latency average = 26.956
	minimum = 7
	maximum = 82
Network latency average = 26.956
	minimum = 7
	maximum = 82
Slowest packet = 4039
Flit latency average = 26.956
	minimum = 7
	maximum = 82
Slowest flit = 4039
Fragmentation average = 0
	minimum = 0
	maximum = 0
Injected packet rate average = 0.010625
	minimum = 0.006 (at node 14)
	maximum = 0.02 (at node 0)
Accepted packet rate average = 0.011375
	minimum = 0 (at node 0)
	maximum = 0.182 (at node 12)
Injected flit rate average = 0.010625
	minimum = 0.006 (at node 14)
	maximum = 0.02 (at node 0)
Accepted flit rate average= 0.011375
	minimum = 0 (at node 0)
	maximum = 0.182 (at node 12)
Injected packet length average = 1
Accepted packet length average = 1
Total in-flight flits = 4 (0 measured)
latency change    = 0.116761
throughput change = 0.10989
Warmed up ...Time used is 1500 cycles
Class 0:
Packet latency average = 22.5323
	minimum = 7
	maximum = 44
Network latency average = 22.5323
	minimum = 7
	maximum = 44
Slowest packet = 4186
Flit latency average = 22.8485
	minimum = 7
	maximum = 44
Slowest flit = 4186
Fragmentation average = 0
	minimum = 0
	maximum = 0
Injected packet rate average = 0.008
	minimum = 0.004 (at node 6)
	maximum = 0.012 (at node 3)
Accepted packet rate average = 0.00825
	minimum = 0 (at node 0)
	maximum = 0.132 (at node 12)
Injected flit rate average = 0.008
	minimum = 0.004 (at node 6)
	maximum = 0.012 (at node 3)
Accepted flit rate average= 0.00825
	minimum = 0 (at node 0)
	maximum = 0.132 (at node 12)
Injected packet length average = 1
Accepted packet length average = 1
Total in-flight flits = 2 (2 measured)
latency change    = 0.196331
throughput change = 0.378788
Class 0:
Packet latency average = 23.8125
	minimum = 7
	maximum = 57
Network latency average = 23.8125
	minimum = 7
	maximum = 57
Slowest packet = 4265
Flit latency average = 23.9189
	minimum = 7
	maximum = 57
Slowest flit = 4265
Fragmentation average = 0
	minimum = 0
	maximum = 0
Injected packet rate average = 0.0093125
	minimum = 0.005 (at node 7)
	maximum = 0.013 (at node 2)
Accepted packet rate average = 0.00925
	minimum = 0 (at node 0)
	maximum = 0.148 (at node 12)
Injected flit rate average = 0.0093125
	minimum = 0.005 (at node 7)
	maximum = 0.013 (at node 2)
Accepted flit rate average= 0.00925
	minimum = 0 (at node 0)
	maximum = 0.148 (at node 12)
Injected packet length average = 1
Accepted packet length average = 1
Total in-flight flits = 5 (5 measured)
latency change    = 0.0537634
throughput change = 0.108108
Class 0:
Packet latency average = 23.88
	minimum = 7
	maximum = 59
Network latency average = 23.88
	minimum = 7
	maximum = 59
Slowest packet = 4271
Flit latency average = 23.9476
	minimum = 7
	maximum = 59
Slowest flit = 4271
Fragmentation average = 0
	minimum = 0
	maximum = 0
Injected packet rate average = 0.00970833
	minimum = 0.006 (at node 7)
	maximum = 0.0146667 (at node 8)
Accepted packet rate average = 0.00954167
	minimum = 0 (at node 0)
	maximum = 0.152667 (at node 12)
Injected flit rate average = 0.00970833
	minimum = 0.006 (at node 7)
	maximum = 0.0146667 (at node 8)
Accepted flit rate average= 0.00954167
	minimum = 0 (at node 0)
	maximum = 0.152667 (at node 12)
Injected packet length average = 1
Accepted packet length average = 1
Total in-flight flits = 8 (8 measured)
latency change    = 0.00282663
throughput change = 0.0305677
Class 0:
Packet latency average = 23.4295
	minimum = 7
	maximum = 59
Network latency average = 23.4295
	minimum = 7
	maximum = 59
Slowest packet = 4271
Flit latency average = 23.4854
	minimum = 7
	maximum = 59
Slowest flit = 4271
Fragmentation average = 0
	minimum = 0
	maximum = 0
Injected packet rate average = 0.00965625
	minimum = 0.006 (at node 7)
	maximum = 0.013 (at node 8)
Accepted packet rate average = 0.00965625
	minimum = 0 (at node 0)
	maximum = 0.1545 (at node 12)
Injected flit rate average = 0.00965625
	minimum = 0.006 (at node 7)
	maximum = 0.013 (at node 8)
Accepted flit rate average= 0.00965625
	minimum = 0 (at node 0)
	maximum = 0.1545 (at node 12)
Injected packet length average = 1
Accepted packet length average = 1
Total in-flight flits = 4 (4 measured)
latency change    = 0.0192275
throughput change = 0.0118662
Class 0:
Packet latency average = 23.7727
	minimum = 7
	maximum = 61
Network latency average = 23.7727
	minimum = 7
	maximum = 61
Slowest packet = 4471
Flit latency average = 23.8125
	minimum = 7
	maximum = 61
Slowest flit = 4471
Fragmentation average = 0
	minimum = 0
	maximum = 0
Injected packet rate average = 0.00995
	minimum = 0.0064 (at node 7)
	maximum = 0.0152 (at node 8)
Accepted packet rate average = 0.01
	minimum = 0 (at node 0)
	maximum = 0.16 (at node 12)
Injected flit rate average = 0.00995
	minimum = 0.0064 (at node 7)
	maximum = 0.0152 (at node 8)
Accepted flit rate average= 0.01
	minimum = 0 (at node 0)
	maximum = 0.16 (at node 12)
Injected packet length average = 1
Accepted packet length average = 1
Total in-flight flits = 2 (2 measured)
latency change    = 0.0144375
throughput change = 0.034375
Draining all recorded packets ...
Draining remaining packets ...
Time taken is 4011 cycles
Class 0:
Packet latency average = 23
	minimum = 7
	maximum = 41
Network latency average = 23
	minimum = 7
	maximum = 41
Slowest packet = 4564
Flit latency average = 23
	minimum = 7
	maximum = 41
Slowest flit = 4564
Fragmentation average = 0
	minimum = 0
	maximum = 0
Injected packet rate average = 0.01
	minimum = 0.004 (at node 2)
	maximum = 0.02 (at node 5)
Accepted packet rate average = 0.00925
	minimum = 0 (at node 0)
	maximum = 0.148 (at node 12)
Injected flit rate average = 0.01
	minimum = 0.004 (at node 2)
	maximum = 0.02 (at node 5)
Accepted flit rate average= 0.00925
	minimum = 0 (at node 0)
	maximum = 0.148 (at node 12)
Injected packet length average = 1
Accepted packet length average = 1
Total in-flight flits = 6 (0 measured)
latency change    = 1
throughput change = 1
Class 0:
Packet latency average = 24.8047
	minimum = 7
	maximum = 64
Network latency average = 24.8047
	minimum = 7
	maximum = 64
Slowest packet = 4639
Flit latency average = 24.8047
	minimum = 7
	maximum = 64
Slowest flit = 4639
Fragmentation average = 0
	minimum = 0
	maximum = 0
Injected packet rate average = 0.010875
	minimum = 0.006 (at node 14)
	maximum = 0.02 (at node 5)
Accepted packet rate average = 0.0105625
	minimum = 0 (at node 0)
	maximum = 0.169 (at node 12)
Injected flit rate average = 0.010875
	minimum = 0.006 (at node 14)
	maximum = 0.02 (at node 5)
Accepted flit rate average= 0.0105625
	minimum = 0 (at node 0)
	maximum = 0.169 (at node 12)
Injected packet length average = 1
Accepted packet length average = 1
Total in-flight flits = 5 (0 measured)
latency change    = 0.0727576
throughput change = 0.12426
Class 0:
Packet latency average = 22.8507
	minimum = 7
	maximum = 44
Network latency average = 22.8507
	minimum = 7
	maximum = 44
Slowest packet = 4724
Flit latency average = 22.8507
	minimum = 7
	maximum = 44
Slowest flit = 4724
Fragmentation average = 0
	minimum = 0
	maximum = 0
Injected packet rate average = 0.008125
	minimum = 0.002 (at node 0)
	maximum = 0.014 (at node 12)
Accepted packet rate average = 0.008375
	minimum = 0 (at node 0)
	maximum = 0.134 (at node 12)
Injected flit rate average = 0.008125
	minimum = 0.002 (at node 0)
	maximum = 0.014 (at node 12)
Accepted flit rate average= 0.008375
	minimum = 0 (at node 0)
	maximum = 0.134 (at node 12)
Injected packet length average = 1
Accepted packet length average = 1
Total in-flight flits = 3 (0 measured)
latency change    = 0.0855109
throughput change = 0.261194
Warmed up ...Time used is 1500 cycles
Class 0:
Packet latency average = 23.2676
	minimum = 8
	maximum = 37
Network latency average = 23.2676
	minimum = 8
	maximum = 37
Slowest packet = 4769
Flit latency average = 23.4189
	minimum = 8
	maximum = 37
Slowest flit = 4769
Fragmentation average = 0
	minimum = 0
	maximum = 0
Injected packet rate average = 0.009125
	minimum = 0.002 (at node 3)
	maximum = 0.018 (at node 15)
Accepted packet rate average = 0.00925
	minimum = 0 (at node 0)
	maximum = 0.148 (at node 12)
Injected flit rate average = 0.009125
	minimum = 0.002 (at node 3)
	maximum = 0.018 (at node 15)
Accepted flit rate average= 0.00925
	minimum = 0 (at node 0)
	maximum = 0.148 (at node 12)
Injected packet length average = 1
Accepted packet length average = 1
Total in-flight flits = 2 (2 measured)
latency change    = 0.0179159
throughput change = 0.0945946
Class 0:
Packet latency average = 24.1313
	minimum = 7
	maximum = 65
Network latency average = 24.1313
	minimum = 7
	maximum = 65
Slowest packet = 4873
Flit latency average = 24.184
	minimum = 7
	maximum = 65
Slowest flit = 4873
Fragmentation average = 0
	minimum = 0
	maximum = 0
Injected packet rate average = 0.01025
	minimum = 0.004 (at node 9)
	maximum = 0.019 (at node 0)
Accepted packet rate average = 0.0101875
	minimum = 0 (at node 0)
	maximum = 0.163 (at node 12)
Injected flit rate average = 0.01025
	minimum = 0.004 (at node 9)
	maximum = 0.019 (at node 0)
Accepted flit rate average= 0.0101875
	minimum = 0 (at node 0)
	maximum = 0.163 (at node 12)
Injected packet length average = 1
Accepted packet length average = 1
Total in-flight flits = 4 (4 measured)
latency change    = 0.0357895
throughput change = 0.0920245
Class 0:
Packet latency average = 23.9958
	minimum = 7
	maximum = 65
Network latency average = 23.9958
	minimum = 7
	maximum = 65
Slowest packet = 4873
Flit latency average = 24.0333
	minimum = 7
	maximum = 65
Slowest flit = 4873
Fragmentation average = 0
	minimum = 0
	maximum = 0
Injected packet rate average = 0.00991667
	minimum = 0.006 (at node 3)
	maximum = 0.014 (at node 10)
Accepted packet rate average = 0.01
	minimum = 0 (at node 0)
	maximum = 0.16 (at node 12)
Injected flit rate average = 0.00991667
	minimum = 0.006 (at node 3)
	maximum = 0.014 (at node 10)
Accepted flit rate average= 0.01
	minimum = 0 (at node 0)
	maximum = 0.16 (at node 12)
Injected packet length average = 1
Accepted packet length average = 1
Total in-flight flits = 1 (1 measured)
latency change    = 0.00564555
throughput change = 0.01875
Class 0:
Packet latency average = 23.913
	minimum = 7
	maximum = 65
Network latency average = 23.913
	minimum = 7
	maximum = 65
Slowest packet = 4873
Flit latency average = 23.9415
	minimum = 7
	maximum = 65
Slowest flit = 4873
Fragmentation average = 0
	minimum = 0
	maximum = 0
Injected packet rate average = 0.0102188
	minimum = 0.0075 (at node 6)
	maximum = 0.015 (at node 15)
Accepted packet rate average = 0.0101563
	minimum = 0 (at node 0)
	maximum = 0.1625 (at node 12)
Injected flit rate average = 0.0102188
	minimum = 0.0075 (at node 6)
	maximum = 0.015 (at node 15)
Accepted flit rate average= 0.0101563
	minimum = 0 (at node 0)
	maximum = 0.1625 (at node 12)
Injected packet length average = 1
Accepted packet length average = 1
Total in-flight flits = 5 (5 measured)
latency change    = 0.00345992
throughput change = 0.0153846
Class 0:
Packet latency average = 23.6733
	minimum = 7
	maximum = 65
Network latency average = 23.6733
	minimum = 7
	maximum = 65
Slowest packet = 4873
Flit latency average = 23.698
	minimum = 7
	maximum = 65
Slowest flit = 4873
Fragmentation average = 0
	minimum = 0
	maximum = 0
Injected packet rate average = 0.0101
	minimum = 0.0076 (at node 7)
	maximum = 0.0136 (at node 15)
Accepted packet rate average = 0.0101
	minimum = 0 (at node 0)
	maximum = 0.1616 (at node 12)
Injected flit rate average = 0.0101
	minimum = 0.0076 (at node 7)
	maximum = 0.0136 (at node 15)
Accepted flit rate average= 0.0101
	minimum = 0 (at node 0)
	maximum = 0.1616 (at node 12)
Injected packet length average = 1
Accepted packet length average = 1
Total in-flight flits = 3 (3 measured)
latency change    = 0.0101265
throughput change = 0.00556931
Draining all recorded packets ...
Draining remaining packets ...
Time taken is 4047 cycles
Class 0:
Packet latency average = 23.209
	minimum = 7
	maximum = 38
Network latency average = 23.209
	minimum = 7
	maximum = 38
Slowest packet = 5199
Flit latency average = 23.209
	minimum = 7
	maximum = 38
Slowest flit = 5199
Fragmentation average = 0
	minimum = 0
	maximum = 0
Injected packet rate average = 0.008625
	minimum = 0.004 (at node 6)
	maximum = 0.016 (at node 3)
Accepted packet rate average = 0.008375
	minimum = 0 (at node 0)
	maximum = 0.134 (at node 12)
Injected flit rate average = 0.008625
	minimum = 0.004 (at node 6)
	maximum = 0.016 (at node 3)
Accepted flit rate average= 0.008375
	minimum = 0 (at node 0)
	maximum = 0.134 (at node 12)
Injected packet length average = 1
Accepted packet length average = 1
Total in-flight flits = 2 (0 measured)
latency change    = 1
throughput change = 1
Class 0:
Packet latency average = 22
	minimum = 7
	maximum = 43
Network latency average = 22
	minimum = 7
	maximum = 43
Slowest packet = 5322
Flit latency average = 22
	minimum = 7
	maximum = 43
Slowest flit = 5322
Fragmentation average = 0
	minimum = 0
	maximum = 0
Injected packet rate average = 0.00975
	minimum = 0.005 (at node 4)
	maximum = 0.017 (at node 12)
Accepted packet rate average = 0.0095
	minimum = 0 (at node 0)
	maximum = 0.152 (at node 12)
Injected flit rate average = 0.00975
	minimum = 0.005 (at node 4)
	maximum = 0.017 (at node 12)
Accepted flit rate average= 0.0095
	minimum = 0 (at node 0)
	maximum = 0.152 (at node 12)
Injected packet length average = 1
Accepted packet length average = 1
Total in-flight flits = 4 (0 measured)
latency change    = 0.0549525
throughput change = 0.118421
Class 0:
Packet latency average = 22.2973
	minimum = 7
	maximum = 57
Network latency average = 22.2973
	minimum = 7
	maximum = 57
Slowest packet = 5376
Flit latency average = 22.2973
	minimum = 7
	maximum = 57
Slowest flit = 5376
Fragmentation average = 0
	minimum = 0
	maximum = 0
Injected packet rate average = 0.009
	minimum = 0.004 (at node 5)
	maximum = 0.016 (at node 12)
Accepted packet rate average = 0.00925
	minimum = 0 (at node 0)
	maximum = 0.148 (at node 12)
Injected flit rate average = 0.009
	minimum = 0.004 (at node 5)
	maximum = 0.016 (at node 12)
Accepted flit rate average= 0.00925
	minimum = 0 (at node 0)
	maximum = 0.148 (at node 12)
Injected packet length average = 1
Accepted packet length average = 1
Total in-flight flits = 2 (0 measured)
latency change    = 0.0133333
throughput change = 0.027027
Warmed up ...Time used is 1500 cycles
Class 0:
Packet latency average = 22.75
	minimum = 7
	maximum = 61
Network latency average = 22.75
	minimum = 7
	maximum = 61
Slowest packet = 5424
Flit latency average = 22.9545
	minimum = 7
	maximum = 61
Slowest flit = 5424
Fragmentation average = 0
	minimum = 0
	maximum = 0
Injected packet rate average = 0.00825
	minimum = 0.004 (at node 11)
	maximum = 0.014 (at node 9)
Accepted packet rate average = 0.00825
	minimum = 0 (at node 0)
	maximum = 0.132 (at node 12)
Injected flit rate average = 0.00825
	minimum = 0.004 (at node 11)
	maximum = 0.014 (at node 9)
Accepted flit rate average= 0.00825
	minimum = 0 (at node 0)
	maximum = 0.132 (at node 12)
Injected packet length average = 1
Accepted packet length average = 1
Total in-flight flits = 2 (2 measured)
latency change    = 0.019899
throughput change = 0.121212
Class 0:
Packet latency average = 22.7971
	minimum = 7
	maximum = 66
Network latency average = 22.7971
	minimum = 7
	maximum = 66
Slowest packet = 5495
Flit latency average = 22.8929
	minimum = 7
	maximum = 66
Slowest flit = 5495
Fragmentation average = 0
	minimum = 0
	maximum = 0
Injected packet rate average = 0.0088125
	minimum = 0.004 (at node 0)
	maximum = 0.015 (at node 12)
Accepted packet rate average = 0.00875
	minimum = 0 (at node 0)
	maximum = 0.14 (at node 12)
Injected flit rate average = 0.0088125
	minimum = 0.004 (at node 0)
	maximum = 0.015 (at node 12)
Accepted flit rate average= 0.00875
	minimum = 0 (at node 0)
	maximum = 0.14 (at node 12)
Injected packet length average = 1
Accepted packet length average = 1
Total in-flight flits = 3 (3 measured)
latency change    = 0.00206612
throughput change = 0.0571429
Class 0:
Packet latency average = 22.4211
	minimum = 7
	maximum = 66
Network latency average = 22.4211
	minimum = 7
	maximum = 66
Slowest packet = 5495
Flit latency average = 22.4882
	minimum = 7
	maximum = 66
Slowest flit = 5495
Fragmentation average = 0
	minimum = 0
	maximum = 0
Injected packet rate average = 0.00879167
	minimum = 0.00333333 (at node 0)
	maximum = 0.0126667 (at node 12)
Accepted packet rate average = 0.00879167
	minimum = 0 (at node 0)
	maximum = 0.140667 (at node 12)
Injected flit rate average = 0.00879167
	minimum = 0.00333333 (at node 0)
	maximum = 0.0126667 (at node 12)
Accepted flit rate average= 0.00879167
	minimum = 0 (at node 0)
	maximum = 0.140667 (at node 12)
Injected packet length average = 1
Accepted packet length average = 1
Total in-flight flits = 2 (2 measured)
latency change    = 0.0167721
throughput change = 0.00473934
Class 0:
Packet latency average = 23.2517
	minimum = 7
	maximum = 66
Network latency average = 23.2517
	minimum = 7
	maximum = 66
Slowest packet = 5495
Flit latency average = 23.2945
	minimum = 7
	maximum = 66
Slowest flit = 5495
Fragmentation average = 0
	minimum = 0
	maximum = 0
Injected packet rate average = 0.00928125
	minimum = 0.0055 (at node 0)
	maximum = 0.014 (at node 6)
Accepted packet rate average = 0.009125
	minimum = 0 (at node 0)
	maximum = 0.146 (at node 12)
Injected flit rate average = 0.00928125
	minimum = 0.0055 (at node 0)
	maximum = 0.014 (at node 6)
Accepted flit rate average= 0.009125
	minimum = 0 (at node 0)
	maximum = 0.146 (at node 12)
Injected packet length average = 1
Accepted packet length average = 1
Total in-flight flits = 7 (7 measured)
latency change    = 0.0357252
throughput change = 0.0365297
Class 0:
Packet latency average = 23.2017
	minimum = 7
	maximum = 66
Network latency average = 23.2017
	minimum = 7
	maximum = 66
Slowest packet = 5495
Flit latency average = 23.2363
	minimum = 7
	maximum = 66
Slowest flit = 5495
Fragmentation average = 0
	minimum = 0
	maximum = 0
Injected packet rate average = 0.009125
	minimum = 0.0056 (at node 11)
	maximum = 0.0124 (at node 13)
Accepted packet rate average = 0.0091
	minimum = 0 (at node 0)
	maximum = 0.1456 (at node 12)
Injected flit rate average = 0.009125
	minimum = 0.0056 (at node 11)
	maximum = 0.0124 (at node 13)
Accepted flit rate average= 0.0091
	minimum = 0 (at node 0)
	maximum = 0.1456 (at node 12)
Injected packet length average = 1
Accepted packet length average = 1
Total in-flight flits = 3 (3 measured)
latency change    = 0.00215789
throughput change = 0.00274725
Draining all recorded packets ...
Draining remaining packets ...
Time taken is 4051 cycles
Class 0:
Packet latency average = 24.4634
	minimum = 7
	maximum = 59
Network latency average = 24.4634
	minimum = 7
	maximum = 59
Slowest packet = 5848
Flit latency average = 24.4634
	minimum = 7
	maximum = 59
Slowest flit = 5848
Fragmentation average = 0
	minimum = 0
	maximum = 0
Injected packet rate average = 0.010875
	minimum = 0.002 (at node 7)
	maximum = 0.02 (at node 1)
Accepted packet rate average = 0.01025
	minimum = 0 (at node 0)
	maximum = 0.164 (at node 12)
Injected flit rate average = 0.010875
	minimum = 0.002 (at node 7)
	maximum = 0.02 (at node 1)
Accepted flit rate average= 0.01025
	minimum = 0 (at node 0)
	maximum = 0.164 (at node 12)
Injected packet length average = 1
Accepted packet length average = 1
Total in-flight flits = 5 (0 measured)
latency change    = 1
throughput change = 1
Class 0:
Packet latency average = 23.5987
	minimum = 7
	maximum = 59
Network latency average = 23.5987
	minimum = 7
	maximum = 59
Slowest packet = 5848
Flit latency average = 23.5987
	minimum = 7
	maximum = 59
Slowest flit = 5848
Fragmentation average = 0
	minimum = 0
	maximum = 0
Injected packet rate average = 0.00975
	minimum = 0.004 (at node 9)
	maximum = 0.014 (at node 1)
Accepted packet rate average = 0.0095
	minimum = 0 (at node 0)
	maximum = 0.152 (at node 12)
Injected flit rate average = 0.00975
	minimum = 0.004 (at node 9)
	maximum = 0.014 (at node 1)
Accepted flit rate average= 0.0095
	minimum = 0 (at node 0)
	maximum = 0.152 (at node 12)
Injected packet length average = 1
Accepted packet length average = 1
Total in-flight flits = 4 (0 measured)
latency change    = 0.0366432
throughput change = 0.0789474
Class 0:
Packet latency average = 21.9036
	minimum = 7
	maximum = 45
Network latency average = 21.9036
	minimum = 7
	maximum = 45
Slowest packet = 5975
Flit latency average = 21.9036
	minimum = 7
	maximum = 45
Slowest flit = 5975
Fragmentation average = 0
	minimum = 0
	maximum = 0
Injected packet rate average = 0.0105
	minimum = 0.002 (at node 7)
	maximum = 0.016 (at node 0)
Accepted packet rate average = 0.010375
	minimum = 0 (at node 0)
	maximum = 0.166 (at node 12)
Injected flit rate average = 0.0105
	minimum = 0.002 (at node 7)
	maximum = 0.016 (at node 0)
Accepted flit rate average= 0.010375
	minimum = 0 (at node 0)
	maximum = 0.166 (at node 12)
Injected packet length average = 1
Accepted packet length average = 1
Total in-flight flits = 5 (0 measured)
latency change    = 0.0773877
throughput change = 0.0843373
Warmed up ...Time used is 1500 cycles
Class 0:
Packet latency average = 25.4946
	minimum = 7
	maximum = 56
Network latency average = 25.4946
	minimum = 7
	maximum = 56
Slowest packet = 6062
Flit latency average = 25.6531
	minimum = 7
	maximum = 56
Slowest flit = 6062
Fragmentation average = 0
	minimum = 0
	maximum = 0
Injected packet rate average = 0.012125
	minimum = 0.004 (at node 0)
	maximum = 0.02 (at node 11)
Accepted packet rate average = 0.01225
	minimum = 0 (at node 0)
	maximum = 0.196 (at node 12)
Injected flit rate average = 0.012125
	minimum = 0.004 (at node 0)
	maximum = 0.02 (at node 11)
Accepted flit rate average= 0.01225
	minimum = 0 (at node 0)
	maximum = 0.196 (at node 12)
Injected packet length average = 1
Accepted packet length average = 1
Total in-flight flits = 4 (4 measured)
latency change    = 0.140854
throughput change = 0.153061
Class 0:
Packet latency average = 23.8882
	minimum = 7
	maximum = 56
Network latency average = 23.8882
	minimum = 7
	maximum = 56
Slowest packet = 6062
Flit latency average = 24.0229
	minimum = 7
	maximum = 56
Slowest flit = 6062
Fragmentation average = 0
	minimum = 0
	maximum = 0
Injected packet rate average = 0.011
	minimum = 0.005 (at node 1)
	maximum = 0.017 (at node 6)
Accepted packet rate average = 0.0109375
	minimum = 0 (at node 0)
	maximum = 0.175 (at node 12)
Injected flit rate average = 0.011
	minimum = 0.005 (at node 1)
	maximum = 0.017 (at node 6)
Accepted flit rate average= 0.0109375
	minimum = 0 (at node 0)
	maximum = 0.175 (at node 12)
Injected packet length average = 1
Accepted packet length average = 1
Total in-flight flits = 6 (6 measured)
latency change    = 0.067246
throughput change = 0.12
Class 0:
Packet latency average = 24.5875
	minimum = 7
	maximum = 56
Network latency average = 24.5875
	minimum = 7
	maximum = 56
Slowest packet = 6062
Flit latency average = 24.6694
	minimum = 7
	maximum = 56
Slowest flit = 6062
Fragmentation average = 0
	minimum = 0
	maximum = 0
Injected packet rate average = 0.0101667
	minimum = 0.006 (at node 13)
	maximum = 0.016 (at node 6)
Accepted packet rate average = 0.0102083
	minimum = 0 (at node 0)
	maximum = 0.163333 (at node 12)
Injected flit rate average = 0.0101667
	minimum = 0.006 (at node 13)
	maximum = 0.016 (at node 6)
Accepted flit rate average= 0.0102083
	minimum = 0 (at node 0)
	maximum = 0.163333 (at node 12)
Injected packet length average = 1
Accepted packet length average = 1
Total in-flight flits = 4 (4 measured)
latency change    = 0.0284398
throughput change = 0.0714286
Class 0:
Packet latency average = 24.4206
	minimum = 7
	maximum = 57
Network latency average = 24.4206
	minimum = 7
	maximum = 57
Slowest packet = 6276
Flit latency average = 24.4847
	minimum = 7
	maximum = 57
Slowest flit = 6276
Fragmentation average = 0
	minimum = 0
	maximum = 0
Injected packet rate average = 0.0100938
	minimum = 0.0075 (at node 13)
	maximum = 0.014 (at node 11)
Accepted packet rate average = 0.0101875
	minimum = 0 (at node 0)
	maximum = 0.163 (at node 12)
Injected flit rate average = 0.0100938
	minimum = 0.0075 (at node 13)
	maximum = 0.014 (at node 11)
Accepted flit rate average= 0.0101875
	minimum = 0 (at node 0)
	maximum = 0.163 (at node 12)
Injected packet length average = 1
Accepted packet length average = 1
Total in-flight flits = 2 (2 measured)
latency change    = 0.00683601
throughput change = 0.00204499
Class 0:
Packet latency average = 24.6951
	minimum = 7
	maximum = 58
Network latency average = 24.6951
	minimum = 7
	maximum = 58
Slowest packet = 6389
Flit latency average = 24.7422
	minimum = 7
	maximum = 58
Slowest flit = 6389
Fragmentation average = 0
	minimum = 0
	maximum = 0
Injected packet rate average = 0.0104
	minimum = 0.008 (at node 13)
	maximum = 0.0136 (at node 2)
Accepted packet rate average = 0.010375
	minimum = 0 (at node 0)
	maximum = 0.166 (at node 12)
Injected flit rate average = 0.0104
	minimum = 0.008 (at node 13)
	maximum = 0.0136 (at node 2)
Accepted flit rate average= 0.010375
	minimum = 0 (at node 0)
	maximum = 0.166 (at node 12)
Injected packet length average = 1
Accepted packet length average = 1
Total in-flight flits = 6 (6 measured)
latency change    = 0.011118
throughput change = 0.0180723
Class 0:
Packet latency average = 24.5845
	minimum = 7
	maximum = 58
Network latency average = 24.5845
	minimum = 7
	maximum = 58
Slowest packet = 6389
Flit latency average = 24.625
	minimum = 7
	maximum = 58
Slowest flit = 6389
Fragmentation average = 0
	minimum = 0
	maximum = 0
Injected packet rate average = 0.0103333
	minimum = 0.008 (at node 3)
	maximum = 0.013 (at node 7)
Accepted packet rate average = 0.0103333
	minimum = 0 (at node 0)
	maximum = 0.165333 (at node 12)
Injected flit rate average = 0.0103333
	minimum = 0.008 (at node 3)
	maximum = 0.013 (at node 7)
Accepted flit rate average= 0.0103333
	minimum = 0 (at node 0)
	maximum = 0.165333 (at node 12)
Injected packet length average = 1
Accepted packet length average = 1
Total in-flight flits = 5 (5 measured)
latency change    = 0.00449879
throughput change = 0.00403226
Draining all recorded packets ...
Draining remaining packets ...
Time taken is 4548 cycles
Class 0:
Packet latency average = 24.7727
	minimum = 7
	maximum = 67
Network latency average = 24.7727
	minimum = 7
	maximum = 67
Slowest packet = 6551
Flit latency average = 24.7727
	minimum = 7
	maximum = 67
Slowest flit = 6551
Fragmentation average = 0
	minimum = 0
	maximum = 0
Injected packet rate average = 0.011375
	minimum = 0.002 (at node 6)
	maximum = 0.018 (at node 2)
Accepted packet rate average = 0.011
	minimum = 0 (at node 0)
	maximum = 0.176 (at node 12)
Injected flit rate average = 0.011375
	minimum = 0.002 (at node 6)
	maximum = 0.018 (at node 2)
Accepted flit rate average= 0.011
	minimum = 0 (at node 0)
	maximum = 0.176 (at node 12)
Injected packet length average = 1
Accepted packet length average = 1
Total in-flight flits = 3 (0 measured)
latency change    = 1
throughput change = 1
Class 0:
Packet latency average = 25.8795
	minimum = 7
	maximum = 71
Network latency average = 25.8795
	minimum = 7
	maximum = 71
Slowest packet = 6631
Flit latency average = 25.8795
	minimum = 7
	maximum = 71
Slowest flit = 6631
Fragmentation average = 0
	minimum = 0
	maximum = 0
Injected packet rate average = 0.0104375
	minimum = 0.004 (at node 6)
	maximum = 0.015 (at node 2)
Accepted packet rate average = 0.010375
	minimum = 0 (at node 0)
	maximum = 0.166 (at node 12)
Injected flit rate average = 0.0104375
	minimum = 0.004 (at node 6)
	maximum = 0.015 (at node 2)
Accepted flit rate average= 0.010375
	minimum = 0 (at node 0)
	maximum = 0.166 (at node 12)
Injected packet length average = 1
Accepted packet length average = 1
Total in-flight flits = 1 (0 measured)
latency change    = 0.0427671
throughput change = 0.060241
Class 0:
Packet latency average = 22.3974
	minimum = 7
	maximum = 37
Network latency average = 22.3974
	minimum = 7
	maximum = 37
Slowest packet = 6704
Flit latency average = 22.3974
	minimum = 7
	maximum = 37
Slowest flit = 6704
Fragmentation average = 0
	minimum = 0
	maximum = 0
Injected packet rate average = 0.01
	minimum = 0.004 (at node 6)
	maximum = 0.014 (at node 4)
Accepted packet rate average = 0.00975
	minimum = 0 (at node 0)
	maximum = 0.156 (at node 12)
Injected flit rate average = 0.01
	minimum = 0.004 (at node 6)
	maximum = 0.014 (at node 4)
Accepted flit rate average= 0.00975
	minimum = 0 (at node 0)
	maximum = 0.156 (at node 12)
Injected packet length average = 1
Accepted packet length average = 1
Total in-flight flits = 3 (0 measured)
latency change    = 0.155468
throughput change = 0.0641026
Warmed up ...Time used is 1500 cycles
Class 0:
Packet latency average = 26.8625
	minimum = 7
	maximum = 67
Network latency average = 26.8625
	minimum = 7
	maximum = 67
Slowest packet = 6779
Flit latency average = 26.6988
	minimum = 7
	maximum = 67
Slowest flit = 6779
Fragmentation average = 0
	minimum = 0
	maximum = 0
Injected packet rate average = 0.010625
	minimum = 0.002 (at node 13)
	maximum = 0.018 (at node 1)
Accepted packet rate average = 0.010375
	minimum = 0 (at node 0)
	maximum = 0.166 (at node 12)
Injected flit rate average = 0.010625
	minimum = 0.002 (at node 13)
	maximum = 0.018 (at node 1)
Accepted flit rate average= 0.010375
	minimum = 0 (at node 0)
	maximum = 0.166 (at node 12)
Injected packet length average = 1
Accepted packet length average = 1
Total in-flight flits = 5 (5 measured)
latency change    = 0.166219
throughput change = 0.060241
Class 0:
Packet latency average = 25.1961
	minimum = 7
	maximum = 67
Network latency average = 25.1961
	minimum = 7
	maximum = 67
Slowest packet = 6779
Flit latency average = 25.141
	minimum = 7
	maximum = 67
Slowest flit = 6779
Fragmentation average = 0
	minimum = 0
	maximum = 0
Injected packet rate average = 0.00975
	minimum = 0.005 (at node 13)
	maximum = 0.013 (at node 4)
Accepted packet rate average = 0.00975
	minimum = 0 (at node 0)
	maximum = 0.156 (at node 12)
Injected flit rate average = 0.00975
	minimum = 0.005 (at node 13)
	maximum = 0.013 (at node 4)
Accepted flit rate average= 0.00975
	minimum = 0 (at node 0)
	maximum = 0.156 (at node 12)
Injected packet length average = 1
Accepted packet length average = 1
Total in-flight flits = 3 (3 measured)
latency change    = 0.0661381
throughput change = 0.0641026
Class 0:
Packet latency average = 23.805
	minimum = 7
	maximum = 67
Network latency average = 23.805
	minimum = 7
	maximum = 67
Slowest packet = 6779
Flit latency average = 23.7869
	minimum = 7
	maximum = 67
Slowest flit = 6779
Fragmentation average = 0
	minimum = 0
	maximum = 0
Injected packet rate average = 0.0102083
	minimum = 0.00666667 (at node 2)
	maximum = 0.0153333 (at node 14)
Accepted packet rate average = 0.0101667
	minimum = 0 (at node 0)
	maximum = 0.162667 (at node 12)
Injected flit rate average = 0.0102083
	minimum = 0.00666667 (at node 2)
	maximum = 0.0153333 (at node 14)
Accepted flit rate average= 0.0101667
	minimum = 0 (at node 0)
	maximum = 0.162667 (at node 12)
Injected packet length average = 1
Accepted packet length average = 1
Total in-flight flits = 4 (4 measured)
latency change    = 0.0584373
throughput change = 0.0409836
Class 0:
Packet latency average = 23.9164
	minimum = 7
	maximum = 67
Network latency average = 23.9164
	minimum = 7
	maximum = 67
Slowest packet = 6779
Flit latency average = 23.9018
	minimum = 7
	maximum = 67
Slowest flit = 6779
Fragmentation average = 0
	minimum = 0
	maximum = 0
Injected packet rate average = 0.0101563
	minimum = 0.0085 (at node 2)
	maximum = 0.0145 (at node 14)
Accepted packet rate average = 0.0101875
	minimum = 0 (at node 0)
	maximum = 0.163 (at node 12)
Injected flit rate average = 0.0101563
	minimum = 0.0085 (at node 2)
	maximum = 0.0145 (at node 14)
Accepted flit rate average= 0.0101875
	minimum = 0 (at node 0)
	maximum = 0.163 (at node 12)
Injected packet length average = 1
Accepted packet length average = 1
Total in-flight flits = 2 (2 measured)
latency change    = 0.00465912
throughput change = 0.00204499
Class 0:
Packet latency average = 23.9045
	minimum = 7
	maximum = 67
Network latency average = 23.9045
	minimum = 7
	maximum = 67
Slowest packet = 6779
Flit latency average = 23.8928
	minimum = 7
	maximum = 67
Slowest flit = 6779
Fragmentation average = 0
	minimum = 0
	maximum = 0
Injected packet rate average = 0.01
	minimum = 0.0072 (at node 12)
	maximum = 0.0148 (at node 14)
Accepted packet rate average = 0.010025
	minimum = 0 (at node 0)
	maximum = 0.1604 (at node 12)
Injected flit rate average = 0.01
	minimum = 0.0072 (at node 12)
	maximum = 0.0148 (at node 14)
Accepted flit rate average= 0.010025
	minimum = 0 (at node 0)
	maximum = 0.1604 (at node 12)
Injected packet length average = 1
Accepted packet length average = 1
Total in-flight flits = 2 (2 measured)
latency change    = 0.00049723
throughput change = 0.0162095
Class 0:
Packet latency average = 24.3164
	minimum = 7
	maximum = 67
Network latency average = 24.3164
	minimum = 7
	maximum = 67
Slowest packet = 6779
Flit latency average = 24.3044
	minimum = 7
	maximum = 67
Slowest flit = 6779
Fragmentation average = 0
	minimum = 0
	maximum = 0
Injected packet rate average = 0.0104375
	minimum = 0.007 (at node 12)
	maximum = 0.0143333 (at node 14)
Accepted packet rate average = 0.0103333
	minimum = 0 (at node 0)
	maximum = 0.165333 (at node 12)
Injected flit rate average = 0.0104375
	minimum = 0.007 (at node 12)
	maximum = 0.0143333 (at node 14)
Accepted flit rate average= 0.0103333
	minimum = 0 (at node 0)
	maximum = 0.165333 (at node 12)
Injected packet length average = 1
Accepted packet length average = 1
Total in-flight flits = 8 (8 measured)
latency change    = 0.0169395
throughput change = 0.0298387
Draining all recorded packets ...
Draining remaining packets ...
Time taken is 4564 cycles
Class 0:
Packet latency average = 28.3146
	minimum = 12
	maximum = 71
Network latency average = 28.3146
	minimum = 12
	maximum = 71
Slowest packet = 7302
Flit latency average = 28.3146
	minimum = 12
	maximum = 71
Slowest flit = 7302
Fragmentation average = 0
	minimum = 0
	maximum = 0
Injected packet rate average = 0.011125
	minimum = 0 (at node 12)
	maximum = 0.022 (at node 2)
Accepted packet rate average = 0.011125
	minimum = 0 (at node 0)
	maximum = 0.178 (at node 12)
Injected flit rate average = 0.011125
	minimum = 0 (at node 12)
	maximum = 0.022 (at node 2)
Accepted flit rate average= 0.011125
	minimum = 0 (at node 0)
	maximum = 0.178 (at node 12)
Injected packet length average = 1
Accepted packet length average = 1
Total in-flight flits = 0 (0 measured)
latency change    = 1
throughput change = 1
Class 0:
Packet latency average = 25.9641
	minimum = 7
	maximum = 71
Network latency average = 25.9641
	minimum = 7
	maximum = 71
Slowest packet = 7302
Flit latency average = 25.9641
	minimum = 7
	maximum = 71
Slowest flit = 7302
Fragmentation average = 0
	minimum = 0
	maximum = 0
Injected packet rate average = 0.010625
	minimum = 0.006 (at node 12)
	maximum = 0.015 (at node 2)
Accepted packet rate average = 0.0104375
	minimum = 0 (at node 0)
	maximum = 0.167 (at node 12)
Injected flit rate average = 0.010625
	minimum = 0.006 (at node 12)
	maximum = 0.015 (at node 2)
Accepted flit rate average= 0.0104375
	minimum = 0 (at node 0)
	maximum = 0.167 (at node 12)
Injected packet length average = 1
Accepted packet length average = 1
Total in-flight flits = 3 (0 measured)
latency change    = 0.0905303
throughput change = 0.0658683
Class 0:
Packet latency average = 23.2152
	minimum = 7
	maximum = 42
Network latency average = 23.2152
	minimum = 7
	maximum = 42
Slowest packet = 7482
Flit latency average = 23.2152
	minimum = 7
	maximum = 42
Slowest flit = 7482
Fragmentation average = 0
	minimum = 0
	maximum = 0
Injected packet rate average = 0.01
	minimum = 0.002 (at node 2)
	maximum = 0.014 (at node 4)
Accepted packet rate average = 0.009875
	minimum = 0 (at node 0)
	maximum = 0.158 (at node 12)
Injected flit rate average = 0.01
	minimum = 0.002 (at node 2)
	maximum = 0.014 (at node 4)
Accepted flit rate average= 0.009875
	minimum = 0 (at node 0)
[...]
Injected packet length average = 1
Accepted packet length average = 1
Total in-flight flits = 4 (0 measured)
latency change    = 0.223297
throughput change = 0.0735294
Warmed up ...Time used is 1500 cycles
Class 0:
Packet latency average = 23.1571
	minimum = 7
	maximum = 41
Network latency average = 23.1571
	minimum = 7
	maximum = 41
Slowest packet = 31823
Flit latency average = 23.1622
	minimum = 7
	maximum = 41
Slowest flit = 31823
Fragmentation average = 0
	minimum = 0
	maximum = 0
Injected packet rate average = 0.0095
	minimum = 0.002 (at node 7)
	maximum = 0.018 (at node 6)
Accepted packet rate average = 0.00925
	minimum = 0 (at node 0)
	maximum = 0.148 (at node 12)
Injected flit rate average = 0.0095
	minimum = 0.002 (at node 7)
	maximum = 0.018 (at node 6)
Accepted flit rate average= 0.00925
	minimum = 0 (at node 0)
	maximum = 0.148 (at node 12)
Injected packet length average = 1
Accepted packet length average = 1
Total in-flight flits = 6 (6 measured)
latency change    = 0.0410785
throughput change = 0.0810811
Class 0:
Packet latency average = 24.7343
	minimum = 7
	maximum = 66
Network latency average = 24.7343
	minimum = 7
	maximum = 66
Slowest packet = 31918
Flit latency average = 24.6939
	minimum = 7
	maximum = 66
Slowest flit = 31918
Fragmentation average = 0
	minimum = 0
	maximum = 0
Injected packet rate average = 0.0090625
	minimum = 0.004 (at node 14)
	maximum = 0.013 (at node 3)
Accepted packet rate average = 0.0091875
	minimum = 0 (at node 0)
	maximum = 0.147 (at node 12)
Injected flit rate average = 0.0090625
	minimum = 0.004 (at node 14)
	maximum = 0.013 (at node 3)
Accepted flit rate average= 0.0091875
	minimum = 0 (at node 0)
	maximum = 0.147 (at node 12)
Injected packet length average = 1
Accepted packet length average = 1
Total in-flight flits = 2 (2 measured)
latency change    = 0.0637627
throughput change = 0.00680272
Class 0:
Packet latency average = 24.2651
	minimum = 7
	maximum = 66
Network latency average = 24.2651
	minimum = 7
	maximum = 66
Slowest packet = 31918
Flit latency average = 24.2466
	minimum = 7
	maximum = 66
Slowest flit = 31918
Fragmentation average = 0
	minimum = 0
	maximum = 0
Injected packet rate average = 0.009125
	minimum = 0.00533333 (at node 8)
	maximum = 0.0113333 (at node 2)
Accepted packet rate average = 0.009125
	minimum = 0 (at node 0)
	maximum = 0.146 (at node 12)
Injected flit rate average = 0.009125
	minimum = 0.00533333 (at node 8)
	maximum = 0.0113333 (at node 2)
Accepted flit rate average= 0.009125
	minimum = 0 (at node 0)
	maximum = 0.146 (at node 12)
Injected packet length average = 1
Accepted packet length average = 1
Total in-flight flits = 4 (4 measured)
latency change    = 0.0193343
throughput change = 0.00684932
Class 0:
Packet latency average = 23.941
	minimum = 7
	maximum = 66
Network latency average = 23.941
	minimum = 7
	maximum = 66
Slowest packet = 31918
Flit latency average = 23.9315
	minimum = 7
	maximum = 66
Slowest flit = 31918
Fragmentation average = 0
	minimum = 0
	maximum = 0
Injected packet rate average = 0.00909375
	minimum = 0.007 (at node 11)
	maximum = 0.012 (at node 10)
Accepted packet rate average = 0.009125
	minimum = 0 (at node 0)
	maximum = 0.146 (at node 12)
Injected flit rate average = 0.00909375
	minimum = 0.007 (at node 11)
	maximum = 0.012 (at node 10)
Accepted flit rate average= 0.009125
	minimum = 0 (at node 0)
	maximum = 0.146 (at node 12)
Injected packet length average = 1
Accepted packet length average = 1
Total in-flight flits = 3 (3 measured)
latency change    = 0.0135393
throughput change = 0
Class 0:
Packet latency average = 24.3504
	minimum = 7
	maximum = 66
Network latency average = 24.3504
	minimum = 7
	maximum = 66
Slowest packet = 31918
Flit latency average = 24.3387
	minimum = 7
	maximum = 66
Slowest flit = 31918
Fragmentation average = 0
	minimum = 0
	maximum = 0
Injected packet rate average = 0.00935
	minimum = 0.0068 (at node 11)
	maximum = 0.0124 (at node 10)
Accepted packet rate average = 0.009375
	minimum = 0 (at node 0)
	maximum = 0.15 (at node 12)
Injected flit rate average = 0.00935
	minimum = 0.0068 (at node 11)
	maximum = 0.0124 (at node 10)
Accepted flit rate average= 0.009375
	minimum = 0 (at node 0)
	maximum = 0.15 (at node 12)
Injected packet length average = 1
Accepted packet length average = 1
Total in-flight flits = 3 (3 measured)
latency change    = 0.0168142
throughput change = 0.0266667
Draining all recorded packets ...
Draining remaining packets ...
Time taken is 4034 cycles
Class 0:
Packet latency average = 24.28
	minimum = 7
	maximum = 66
Network latency average = 24.28
	minimum = 7
	maximum = 66
Slowest packet = 32221
Flit latency average = 24.28
	minimum = 7
	maximum = 66
Slowest flit = 32221
Fragmentation average = 0
	minimum = 0
	maximum = 0
Injected packet rate average = 0.0105
	minimum = 0.004 (at node 9)
	maximum = 0.02 (at node 2)
Accepted packet rate average = 0.009375
	minimum = 0 (at node 0)
	maximum = 0.15 (at node 12)
Injected flit rate average = 0.0105
	minimum = 0.004 (at node 9)
	maximum = 0.02 (at node 2)
Accepted flit rate average= 0.009375
	minimum = 0 (at node 0)
	maximum = 0.15 (at node 12)
Injected packet length average = 1
Accepted packet length average = 1
Total in-flight flits = 9 (0 measured)
latency change    = 1
throughput change = 1
Class 0:
Packet latency average = 24.3987
	minimum = 7
	maximum = 66
Network latency average = 24.3987
	minimum = 7
	maximum = 66
Slowest packet = 32221
Flit latency average = 24.3987
	minimum = 7
	maximum = 66
Slowest flit = 32221
Fragmentation average = 0
	minimum = 0
	maximum = 0
Injected packet rate average = 0.0101875
	minimum = 0.006 (at node 15)
	maximum = 0.02 (at node 8)
Accepted packet rate average = 0.009875
	minimum = 0 (at node 0)
	maximum = 0.158 (at node 12)
Injected flit rate average = 0.0101875
	minimum = 0.006 (at node 15)
	maximum = 0.02 (at node 8)
Accepted flit rate average= 0.009875
	minimum = 0 (at node 0)
	maximum = 0.158 (at node 12)
Injected packet length average = 1
Accepted packet length average = 1
Total in-flight flits = 5 (0 measured)
latency change    = 0.00486641
throughput change = 0.0506329
Class 0:
Packet latency average = 22.7368
	minimum = 7
	maximum = 42
Network latency average = 22.7368
	minimum = 7
	maximum = 42
Slowest packet = 32409
Flit latency average = 22.7368
	minimum = 7
	maximum = 42
Slowest flit = 32409
Fragmentation average = 0
	minimum = 0
	maximum = 0
Injected packet rate average = 0.00925
	minimum = 0.002 (at node 12)
	maximum = 0.018 (at node 5)
Accepted packet rate average = 0.0095
	minimum = 0 (at node 0)
	maximum = 0.152 (at node 12)
Injected flit rate average = 0.00925
	minimum = 0.002 (at node 12)
	maximum = 0.018 (at node 5)
Accepted flit rate average= 0.0095
	minimum = 0 (at node 0)
	maximum = 0.152 (at node 12)
Injected packet length average = 1
Accepted packet length average = 1
Total in-flight flits = 3 (0 measured)
latency change    = 0.0730925
throughput change = 0.0394737
Warmed up ...Time used is 1500 cycles
Class 0:
Packet latency average = 23.7692
	minimum = 7
	maximum = 57
Network latency average = 23.7692
	minimum = 7
	maximum = 57
Slowest packet = 32472
Flit latency average = 23.4706
	minimum = 7
	maximum = 57
Slowest flit = 32472
Fragmentation average = 0
	minimum = 0
	maximum = 0
Injected packet rate average = 0.0085
	minimum = 0.004 (at node 1)
	maximum = 0.02 (at node 9)
Accepted packet rate average = 0.0085
	minimum = 0 (at node 0)
	maximum = 0.136 (at node 12)
Injected flit rate average = 0.0085
	minimum = 0.004 (at node 1)
	maximum = 0.02 (at node 9)
Accepted flit rate average= 0.0085
	minimum = 0 (at node 0)
	maximum = 0.136 (at node 12)
Injected packet length average = 1
Accepted packet length average = 1
Total in-flight flits = 3 (3 measured)
latency change    = 0.0434338
throughput change = 0.117647
Class 0:
Packet latency average = 23.4267
	minimum = 7
	maximum = 57
Network latency average = 23.4267
	minimum = 7
	maximum = 57
Slowest packet = 32472
Flit latency average = 23.3007
	minimum = 7
	maximum = 57
Slowest flit = 32472
Fragmentation average = 0
	minimum = 0
	maximum = 0
Injected packet rate average = 0.0095625
	minimum = 0.003 (at node 1)
	maximum = 0.016 (at node 2)
Accepted packet rate average = 0.0095625
	minimum = 0 (at node 0)
	maximum = 0.153 (at node 12)
Injected flit rate average = 0.0095625
	minimum = 0.003 (at node 1)
	maximum = 0.016 (at node 2)
Accepted flit rate average= 0.0095625
	minimum = 0 (at node 0)
	maximum = 0.153 (at node 12)
Injected packet length average = 1
Accepted packet length average = 1
Total in-flight flits = 3 (3 measured)
latency change    = 0.0146228
throughput change = 0.111111
Class 0:
Packet latency average = 23.3025
	minimum = 7
	maximum = 57
Network latency average = 23.3025
	minimum = 7
	maximum = 57
Slowest packet = 32472
Flit latency average = 23.2241
	minimum = 7
	maximum = 57
Slowest flit = 32472
Fragmentation average = 0
	minimum = 0
	maximum = 0
Injected packet rate average = 0.01
	minimum = 0.00466667 (at node 1)
	maximum = 0.016 (at node 2)
Accepted packet rate average = 0.0100417
	minimum = 0 (at node 0)
	maximum = 0.160667 (at node 12)
Injected flit rate average = 0.01
	minimum = 0.00466667 (at node 1)
	maximum = 0.016 (at node 2)
Accepted flit rate average= 0.0100417
	minimum = 0 (at node 0)
	maximum = 0.160667 (at node 12)
Injected packet length average = 1
Accepted packet length average = 1
Total in-flight flits = 2 (2 measured)
latency change    = 0.00532756
throughput change = 0.0477178
Class 0:
Packet latency average = 23.1158
	minimum = 7
	maximum = 57
Network latency average = 23.1158
	minimum = 7
	maximum = 57
Slowest packet = 32472
Flit latency average = 23.0573
	minimum = 7
	maximum = 57
Slowest flit = 32472
Fragmentation average = 0
	minimum = 0
	maximum = 0
Injected packet rate average = 0.0098125
	minimum = 0.005 (at node 1)
	maximum = 0.0155 (at node 9)
Accepted packet rate average = 0.0098125
	minimum = 0 (at node 0)
	maximum = 0.157 (at node 12)
Injected flit rate average = 0.0098125
	minimum = 0.005 (at node 1)
	maximum = 0.0155 (at node 9)
Accepted flit rate average= 0.0098125
	minimum = 0 (at node 0)
	maximum = 0.157 (at node 12)
Injected packet length average = 1
Accepted packet length average = 1
Total in-flight flits = 3 (3 measured)
latency change    = 0.00807957
throughput change = 0.0233546
Class 0:
Packet latency average = 23.0956
	minimum = 7
	maximum = 57
Network latency average = 23.0956
	minimum = 7
	maximum = 57
Slowest packet = 32472
Flit latency average = 23.0487
	minimum = 7
	maximum = 57
Slowest flit = 32472
Fragmentation average = 0
	minimum = 0
	maximum = 0
Injected packet rate average = 0.0097
	minimum = 0.0064 (at node 1)
	maximum = 0.014 (at node 9)
Accepted packet rate average = 0.00975
	minimum = 0 (at node 0)
	maximum = 0.156 (at node 12)
Injected flit rate average = 0.0097
	minimum = 0.0064 (at node 1)
	maximum = 0.014 (at node 9)
Accepted flit rate average= 0.00975
	minimum = 0 (at node 0)
	maximum = 0.156 (at node 12)
Injected packet length average = 1
Accepted packet length average = 1
Total in-flight flits = 1 (1 measured)
latency change    = 0.000872391
throughput change = 0.00641026
Draining all recorded packets ...
Draining remaining packets ...
Time taken is 4045 cycles
Class 0:
Packet latency average = 26.9875
	minimum = 7
	maximum = 61
Network latency average = 26.9875
	minimum = 7
	maximum = 61
Slowest packet = 32878
Flit latency average = 26.9875
	minimum = 7
	maximum = 61
Slowest flit = 32878
Fragmentation average = 0
	minimum = 0
	maximum = 0
Injected packet rate average = 0.010625
	minimum = 0.004 (at node 0)
	maximum = 0.016 (at node 11)
Accepted packet rate average = 0.01
	minimum = 0 (at node 0)
	maximum = 0.16 (at node 12)
Injected flit rate average = 0.010625
	minimum = 0.004 (at node 0)
	maximum = 0.016 (at node 11)
Accepted flit rate average= 0.01
	minimum = 0 (at node 0)
	maximum = 0.16 (at node 12)
Injected packet length average = 1
Accepted packet length average = 1
Total in-flight flits = 5 (0 measured)
latency change    = 1
throughput change = 1
Class 0:
Packet latency average = 25.7532
	minimum = 7
	maximum = 61
Network latency average = 25.7532
	minimum = 7
	maximum = 61
Slowest packet = 32878
Flit latency average = 25.7532
	minimum = 7
	maximum = 61
Slowest flit = 32878
Fragmentation average = 0
	minimum = 0
	maximum = 0
Injected packet rate average = 0.0100625
	minimum = 0.005 (at node 8)
	maximum = 0.016 (at node 11)
Accepted packet rate average = 0.009875
	minimum = 0 (at node 0)
	maximum = 0.158 (at node 12)
Injected flit rate average = 0.0100625
	minimum = 0.005 (at node 8)
	maximum = 0.016 (at node 11)
Accepted flit rate average= 0.009875
	minimum = 0 (at node 0)
	maximum = 0.158 (at node 12)
Injected packet length average = 1
Accepted packet length average = 1
Total in-flight flits = 3 (0 measured)
latency change    = 0.0479295
throughput change = 0.0126582
Class 0:
Packet latency average = 24.0563
	minimum = 7
	maximum = 42
Network latency average = 24.0563
	minimum = 7
	maximum = 42
Slowest packet = 32981
Flit latency average = 24.0563
	minimum = 7
	maximum = 42
Slowest flit = 32981
Fragmentation average = 0
	minimum = 0
	maximum = 0
Injected packet rate average = 0.008625
	minimum = 0.004 (at node 0)
	maximum = 0.016 (at node 7)
Accepted packet rate average = 0.008875
	minimum = 0 (at node 0)
	maximum = 0.142 (at node 12)
Injected flit rate average = 0.008625
	minimum = 0.004 (at node 0)
	maximum = 0.016 (at node 7)
Accepted flit rate average= 0.008875
	minimum = 0 (at node 0)
	maximum = 0.142 (at node 12)
Injected packet length average = 1
Accepted packet length average = 1
Total in-flight flits = 1 (0 measured)
latency change    = 0.0705355
throughput change = 0.112676
Warmed up ...Time used is 1500 cycles
Class 0:
Packet latency average = 24.7258
	minimum = 7
	maximum = 43
Network latency average = 24.7258
	minimum = 7
	maximum = 43
Slowest packet = 33073
Flit latency average = 24.7619
	minimum = 7
	maximum = 43
Slowest flit = 33073
Fragmentation average = 0
	minimum = 0
	maximum = 0
Injected packet rate average = 0.008
	minimum = 0.002 (at node 1)
	maximum = 0.022 (at node 3)
Accepted packet rate average = 0.007875
	minimum = 0 (at node 0)
	maximum = 0.126 (at node 12)
Injected flit rate average = 0.008
	minimum = 0.002 (at node 1)
	maximum = 0.022 (at node 3)
Accepted flit rate average= 0.007875
	minimum = 0 (at node 0)
	maximum = 0.126 (at node 12)
Injected packet length average = 1
Accepted packet length average = 1
Total in-flight flits = 2 (2 measured)
latency change    = 0.0270757
throughput change = 0.126984
Class 0:
Packet latency average = 23.5319
	minimum = 7
	maximum = 50
Network latency average = 23.5319
	minimum = 7
	maximum = 50
Slowest packet = 33139
Flit latency average = 23.5563
	minimum = 7
	maximum = 50
Slowest flit = 33139
Fragmentation average = 0
	minimum = 0
	maximum = 0
Injected packet rate average = 0.0090625
	minimum = 0.004 (at node 1)
	maximum = 0.015 (at node 3)
Accepted packet rate average = 0.008875
	minimum = 0 (at node 0)
	maximum = 0.142 (at node 12)
Injected flit rate average = 0.0090625
	minimum = 0.004 (at node 1)
	maximum = 0.015 (at node 3)
Accepted flit rate average= 0.008875
	minimum = 0 (at node 0)
	maximum = 0.142 (at node 12)
Injected packet length average = 1
Accepted packet length average = 1
Total in-flight flits = 4 (4 measured)
latency change    = 0.050735
throughput change = 0.112676
Class 0:
Packet latency average = 23.567
	minimum = 7
	maximum = 50
Network latency average = 23.567
	minimum = 7
	maximum = 50
Slowest packet = 33139
Flit latency average = 23.5822
	minimum = 7
	maximum = 50
Slowest flit = 33139
Fragmentation average = 0
	minimum = 0
	maximum = 0
Injected packet rate average = 0.0095
	minimum = 0.006 (at node 1)
	maximum = 0.0126667 (at node 3)
Accepted packet rate average = 0.009375
	minimum = 0 (at node 0)
	maximum = 0.15 (at node 12)
Injected flit rate average = 0.0095
	minimum = 0.006 (at node 1)
	maximum = 0.0126667 (at node 3)
Accepted flit rate average= 0.009375
	minimum = 0 (at node 0)
	maximum = 0.15 (at node 12)
Injected packet length average = 1
Accepted packet length average = 1
Total in-flight flits = 4 (4 measured)
latency change    = 0.00148723
throughput change = 0.0533333
Class 0:
Packet latency average = 23.5087
	minimum = 7
	maximum = 50
Network latency average = 23.5087
	minimum = 7
	maximum = 50
Slowest packet = 33139
Flit latency average = 23.5207
	minimum = 7
	maximum = 50
Slowest flit = 33139
Fragmentation average = 0
	minimum = 0
	maximum = 0
Injected packet rate average = 0.00909375
	minimum = 0.006 (at node 0)
	maximum = 0.0125 (at node 4)
Accepted packet rate average = 0.0090625
	minimum = 0 (at node 0)
	maximum = 0.145 (at node 12)
Injected flit rate average = 0.00909375
	minimum = 0.006 (at node 0)
	maximum = 0.0125 (at node 4)
Accepted flit rate average= 0.0090625
	minimum = 0 (at node 0)
	maximum = 0.145 (at node 12)
Injected packet length average = 1
Accepted packet length average = 1
Total in-flight flits = 2 (2 measured)
latency change    = 0.00248052
throughput change = 0.0344828
Class 0:
Packet latency average = 23.9036
	minimum = 7
	maximum = 50
Network latency average = 23.9036
	minimum = 7
	maximum = 50
Slowest packet = 33139
Flit latency average = 23.9121
	minimum = 7
	maximum = 50
Slowest flit = 33139
Fragmentation average = 0
	minimum = 0
	maximum = 0
Injected packet rate average = 0.009125
	minimum = 0.006 (at node 1)
	maximum = 0.0136 (at node 3)
Accepted packet rate average = 0.0091
	minimum = 0 (at node 0)
	maximum = 0.1456 (at node 12)
Injected flit rate average = 0.009125
	minimum = 0.006 (at node 1)
	maximum = 0.0136 (at node 3)
Accepted flit rate average= 0.0091
	minimum = 0 (at node 0)
	maximum = 0.1456 (at node 12)
Injected packet length average = 1
Accepted packet length average = 1
Total in-flight flits = 2 (2 measured)
latency change    = 0.0165218
throughput change = 0.00412088
Class 0:
Packet latency average = 23.8929
	minimum = 7
	maximum = 56
Network latency average = 23.8929
	minimum = 7
	maximum = 56
Slowest packet = 33430
Flit latency average = 23.8998
	minimum = 7
	maximum = 56
Slowest flit = 33430
Fragmentation average = 0
	minimum = 0
	maximum = 0
Injected packet rate average = 0.0094375
	minimum = 0.00566667 (at node 1)
	maximum = 0.013 (at node 3)
Accepted packet rate average = 0.00935417
	minimum = 0 (at node 0)
	maximum = 0.149667 (at node 12)
Injected flit rate average = 0.0094375
	minimum = 0.00566667 (at node 1)
	maximum = 0.013 (at node 3)
Accepted flit rate average= 0.00935417
	minimum = 0 (at node 0)
	maximum = 0.149667 (at node 12)
Injected packet length average = 1
Accepted packet length average = 1
Total in-flight flits = 5 (5 measured)
latency change    = 0.000448842
throughput change = 0.0271715
Draining all recorded packets ...
Draining remaining packets ...
Time taken is 4544 cycles
====== Overall Traffic Statistics ======
====== Traffic class 0 ======
Packet latency average = 24.2817 (50 samples)
	minimum = 7 (50 samples)
	maximum = 65.42 (50 samples)
Network latency average = 24.2817 (50 samples)
	minimum = 7 (50 samples)
	maximum = 65.42 (50 samples)
Flit latency average = 24.3144 (50 samples)
	minimum = 7 (50 samples)
	maximum = 65.52 (50 samples)
Fragmentation average = 0 (50 samples)
	minimum = 0 (50 samples)
	maximum = 0 (50 samples)
Injected packet rate average = 0.00999749 (50 samples)
	minimum = 0.006788 (50 samples)
	maximum = 0.0136874 (50 samples)
Accepted packet rate average = 0.0100146 (50 samples)
	minimum = 0 (50 samples)
	maximum = 0.160234 (50 samples)
Injected flit rate average = 0.00999749 (50 samples)
	minimum = 0.006788 (50 samples)
	maximum = 0.0136874 (50 samples)
Accepted flit rate average = 0.0100146 (50 samples)
	minimum = 0 (50 samples)
	maximum = 0.160234 (50 samples)
Injected packet size average = 1 (50 samples)
Accepted packet size average = 1 (50 samples)
Hops average = 3.99711 (50 samples)
Total run time 1.13447
