BEGIN Configuration File: /tmp/tmpy8y292fb.cfg
topology = mesh;
k = 4;
n = 2;
routing_function = planar_adapt;
num_vcs = 4;
vc_buf_size = 4;
wait_for_tail_credit = 1;
vc_allocator = islip;
sw_allocator = islip;
alloc_iters = 1;
credit_delay = 2;
routing_delay = 1;
vc_alloc_delay = 1;
sw_alloc_delay = 1;
input_speedup = 2;
output_speedup = 1;
internal_speedup = 1.0;
traffic = transpose;
packet_size = 1;
sim_type = latency;
injection_rate = 0.01;
warmup_periods = 3;
sample_period = 500;
sim_count = 50;
seed = 2;
link_failures = 4;
fail_seed = 101;

END Configuration File: /tmp/tmpy8y292fb.cfg
failure at node 14, channel 0 (1/4)
failure at node 12, channel 0 (2/4)
failure at node 4, channel 2 (3/4)
failure at node 11, channel 1 (4/4)
Class 0:
Packet latency average = 20.5
	minimum = 7
	maximum = 53
Network latency average = 20.5
	minimum = 7
	maximum = 53
Slowest packet = 42
Flit latency average = 20.5
	minimum = 7
	maximum = 53
Slowest flit = 42
Fragmentation average = 0
	minimum = 0
	maximum = 0
Injected packet rate average = 0.008125
	minimum = 0 (at node 9)
	maximum = 0.014 (at node 5)
Accepted packet rate average = 0.00775
	minimum = 0 (at node 6)
	maximum = 0.014 (at node 5)
Injected flit rate average = 0.008125
	minimum = 0 (at node 9)
	maximum = 0.014 (at node 5)
Accepted flit rate average= 0.00775
	minimum = 0 (at node 6)
	maximum = 0.014 (at node 5)
Injected packet length average = 1
Accepted packet length average = 1
Total in-flight flits = 3 (0 measured)
latency change    = 1
throughput change = 1
Class 0:
Packet latency average = 19.4773
	minimum = 7
	maximum = 53
Network latency average = 19.4773
	minimum = 7
	maximum = 53
Slowest packet = 42
Flit latency average = 19.4773
	minimum = 7
	maximum = 53
Slowest flit = 42
Fragmentation average = 0
	minimum = 0
	maximum = 0
Injected packet rate average = 0.008625
	minimum = 0.003 (at node 2)
	maximum = 0.015 (at node 13)
Accepted packet rate average = 0.00825
	minimum = 0.003 (at node 6)
	maximum = 0.013 (at node 7)
Injected flit rate average = 0.008625
	minimum = 0.003 (at node 2)
	maximum = 0.015 (at node 13)
Accepted flit rate average= 0.00825
	minimum = 0.003 (at node 6)
	maximum = 0.013 (at node 7)
Injected packet length average = 1
Accepted packet length average = 1
Total in-flight flits = 6 (0 measured)
latency change    = 0.0525088
throughput change = 0.0606061
Class 0:
Packet latency average = 19.9176
	minimum = 7
	maximum = 47
Network latency average = 19.9176
	minimum = 7
	maximum = 47
Slowest packet = 131
Flit latency average = 19.9176
	minimum = 7
	maximum = 47
Slowest flit = 131
Fragmentation average = 0
	minimum = 0
	maximum = 0
Injected packet rate average = 0.01
	minimum = 0.002 (at node 3)
	maximum = 0.022 (at node 13)
Accepted packet rate average = 0.010625
	minimum = 0.002 (at node 4)
	maximum = 0.026 (at node 7)
Injected flit rate average = 0.01
	minimum = 0.002 (at node 3)
	maximum = 0.022 (at node 13)
Accepted flit rate average= 0.010625
	minimum = 0.002 (at node 4)
	maximum = 0.026 (at node 7)
Injected packet length average = 1
Accepted packet length average = 1
Total in-flight flits = 1 (0 measured)
latency change    = 0.0221098
throughput change = 0.223529
Warmed up ...Time used is 1500 cycles
Class 0:
Packet latency average = 20
	minimum = 7
	maximum = 53
Network latency average = 20
	minimum = 7
	maximum = 53
Slowest packet = 229
Flit latency average = 19.9659
	minimum = 7
	maximum = 53
Slowest flit = 229
Fragmentation average = 0
	minimum = 0
	maximum = 0
Injected packet rate average = 0.01125
	minimum = 0.004 (at node 15)
	maximum = 0.022 (at node 10)
Accepted packet rate average = 0.011
	minimum = 0.004 (at node 8)
	maximum = 0.022 (at node 10)
Injected flit rate average = 0.01125
	minimum = 0.004 (at node 15)
	maximum = 0.022 (at node 10)
Accepted flit rate average= 0.011
	minimum = 0.004 (at node 8)
	maximum = 0.022 (at node 10)
Injected packet length average = 1
Accepted packet length average = 1
Total in-flight flits = 3 (3 measured)
latency change    = 0.00411765
throughput change = 0.0340909
Class 0:
Packet latency average = 21.1084
	minimum = 7
	maximum = 53
Network latency average = 21.1084
	minimum = 7
	maximum = 53
Slowest packet = 229
Flit latency average = 21.0838
	minimum = 7
	maximum = 53
Slowest flit = 229
Fragmentation average = 0
	minimum = 0
	maximum = 0
Injected packet rate average = 0.0105
	minimum = 0.006 (at node 2)
	maximum = 0.015 (at node 3)
Accepted packet rate average = 0.0104375
	minimum = 0.006 (at node 8)
	maximum = 0.015 (at node 10)
Injected flit rate average = 0.0105
	minimum = 0.006 (at node 2)
	maximum = 0.015 (at node 3)
Accepted flit rate average= 0.0104375
	minimum = 0.006 (at node 8)
	maximum = 0.015 (at node 10)
Injected packet length average = 1
Accepted packet length average = 1
Total in-flight flits = 2 (2 measured)
latency change    = 0.0525114
throughput change = 0.0538922
Class 0:
Packet latency average = 21.6738
	minimum = 7
	maximum = 53
Network latency average = 21.6738
	minimum = 7
	maximum = 53
Slowest packet = 229
Flit latency average = 21.6538
	minimum = 7
	maximum = 53
Slowest flit = 229
Fragmentation average = 0
	minimum = 0
	maximum = 0
Injected packet rate average = 0.00983333
	minimum = 0.00666667 (at node 1)
	maximum = 0.0153333 (at node 3)
Accepted packet rate average = 0.00975
	minimum = 0.00666667 (at node 2)
	maximum = 0.0146667 (at node 12)
Injected flit rate average = 0.00983333
	minimum = 0.00666667 (at node 1)
	maximum = 0.0153333 (at node 3)
Accepted flit rate average= 0.00975
	minimum = 0.00666667 (at node 2)
	maximum = 0.0146667 (at node 12)
Injected packet length average = 1
Accepted packet length average = 1
Total in-flight flits = 3 (3 measured)
latency change    = 0.0260861
throughput change = 0.0705128
Class 0:
Packet latency average = 21.4503
	minimum = 7
	maximum = 53
Network latency average = 21.4503
	minimum = 7
	maximum = 53
Slowest packet = 229
Flit latency average = 21.4365
	minimum = 7
	maximum = 53
Slowest flit = 229
Fragmentation average = 0
	minimum = 0
	maximum = 0
Injected packet rate average = 0.0101875
	minimum = 0.0065 (at node 8)
	maximum = 0.014 (at node 10)
Accepted packet rate average = 0.0100938
	minimum = 0.0065 (at node 2)
	maximum = 0.014 (at node 10)
Injected flit rate average = 0.0101875
	minimum = 0.0065 (at node 8)
	maximum = 0.014 (at node 10)
Accepted flit rate average= 0.0100938
	minimum = 0.0065 (at node 2)
	maximum = 0.014 (at node 10)
Injected packet length average = 1
Accepted packet length average = 1
Total in-flight flits = 4 (4 measured)
latency change    = 0.0104199
throughput change = 0.0340557
Class 0:
Packet latency average = 21.2623
	minimum = 7
	maximum = 53
Network latency average = 21.2623
	minimum = 7
	maximum = 53
Slowest packet = 229
Flit latency average = 21.2518
	minimum = 7
	maximum = 53
Slowest flit = 229
Fragmentation average = 0
	minimum = 0
	maximum = 0
Injected packet rate average = 0.010275
	minimum = 0.0076 (at node 1)
	maximum = 0.0136 (at node 12)
Accepted packet rate average = 0.010225
	minimum = 0.0076 (at node 2)
	maximum = 0.0132 (at node 3)
Injected flit rate average = 0.010275
	minimum = 0.0076 (at node 1)
	maximum = 0.0136 (at node 12)
Accepted flit rate average= 0.010225
	minimum = 0.0076 (at node 2)
	maximum = 0.0132 (at node 3)
Injected packet length average = 1
Accepted packet length average = 1
Total in-flight flits = 3 (3 measured)
latency change    = 0.00884458
throughput change = 0.0128362
Class 0:
Packet latency average = 21.0286
	minimum = 7
	maximum = 53
Network latency average = 21.0286
	minimum = 7
	maximum = 53
Slowest packet = 229
Flit latency average = 21.0204
	minimum = 7
	maximum = 53
Slowest flit = 229
Fragmentation average = 0
	minimum = 0
	maximum = 0
Injected packet rate average = 0.0103125
	minimum = 0.00766667 (at node 1)
	maximum = 0.0136667 (at node 10)
Accepted packet rate average = 0.0102083
	minimum = 0.00766667 (at node 8)
	maximum = 0.0133333 (at node 10)
Injected flit rate average = 0.0103125
	minimum = 0.00766667 (at node 1)
	maximum = 0.0136667 (at node 10)
Accepted flit rate average= 0.0102083
	minimum = 0.00766667 (at node 8)
	maximum = 0.0133333 (at node 10)
Injected packet length average = 1
Accepted packet length average = 1
Total in-flight flits = 6 (6 measured)
latency change    = 0.0111099
throughput change = 0.00163265
Draining all recorded packets ...
Draining remaining packets ...
Time taken is 4553 cycles
Class 0:
Packet latency average = 18.6912
	minimum = 7
	maximum = 47
Network latency average = 18.6912
	minimum = 7
	maximum = 47
Slowest packet = 735
Flit latency average = 18.6912
	minimum = 7
	maximum = 47
Slowest flit = 735
Fragmentation average = 0
	minimum = 0
	maximum = 0
Injected packet rate average = 0.009
	minimum = 0.004 (at node 13)
	maximum = 0.026 (at node 5)
Accepted packet rate average = 0.0085
	minimum = 0.004 (at node 7)
	maximum = 0.026 (at node 5)
Injected flit rate average = 0.009
	minimum = 0.004 (at node 13)
	maximum = 0.026 (at node 5)
Accepted flit rate average= 0.0085
	minimum = 0.004 (at node 7)
	maximum = 0.026 (at node 5)
Injected packet length average = 1
Accepted packet length average = 1
Total in-flight flits = 4 (0 measured)
latency change    = 1
throughput change = 1
Class 0:
Packet latency average = 19.0823
	minimum = 7
	maximum = 48
Network latency average = 19.0823
	minimum = 7
	maximum = 48
Slowest packet = 820
Flit latency average = 19.0823
	minimum = 7
	maximum = 48
Slowest flit = 820
Fragmentation average = 0
	minimum = 0
	maximum = 0
Injected packet rate average = 0.0100625
	minimum = 0.005 (at node 2)
	maximum = 0.018 (at node 5)
Accepted packet rate average = 0.009875
	minimum = 0.005 (at node 2)
	maximum = 0.018 (at node 5)
Injected flit rate average = 0.0100625
	minimum = 0.005 (at node 2)
	maximum = 0.018 (at node 5)
Accepted flit rate average= 0.009875
	minimum = 0.005 (at node 2)
	maximum = 0.018 (at node 5)
Injected packet length average = 1
Accepted packet length average = 1
Total in-flight flits = 3 (0 measured)
latency change    = 0.0204956
throughput change = 0.139241
Class 0:
Packet latency average = 22.2368
	minimum = 7
	maximum = 56
Network latency average = 22.2368
	minimum = 7
	maximum = 56
Slowest packet = 873
Flit latency average = 22.2368
	minimum = 7
	maximum = 56
Slowest flit = 873
Fragmentation average = 0
	minimum = 0
	maximum = 0
Injected packet rate average = 0.009625
	minimum = 0.004 (at node 1)
	maximum = 0.018 (at node 9)
Accepted packet rate average = 0.0095
	minimum = 0.004 (at node 4)
	maximum = 0.016 (at node 7)
Injected flit rate average = 0.009625
	minimum = 0.004 (at node 1)
	maximum = 0.018 (at node 9)
Accepted flit rate average= 0.0095
	minimum = 0.004 (at node 4)
	maximum = 0.016 (at node 7)
Injected packet length average = 1
Accepted packet length average = 1
Total in-flight flits = 4 (0 measured)
latency change    = 0.141862
throughput change = 0.0394737
Warmed up ...Time used is 1500 cycles
Class 0:
Packet latency average = 21.4824
	minimum = 7
	maximum = 47
Network latency average = 21.4824
	minimum = 7
	maximum = 47
Slowest packet = 971
Flit latency average = 21.5056
	minimum = 7
	maximum = 47
Slowest flit = 971
Fragmentation average = 0
	minimum = 0
	maximum = 0
Injected packet rate average = 0.010875
	minimum = 0.004 (at node 6)
	maximum = 0.016 (at node 5)
Accepted packet rate average = 0.011125
	minimum = 0.004 (at node 9)
	maximum = 0.018 (at node 13)
Injected flit rate average = 0.010875
	minimum = 0.004 (at node 6)
	maximum = 0.016 (at node 5)
Accepted flit rate average= 0.011125
	minimum = 0.004 (at node 9)
	maximum = 0.018 (at node 13)
Injected packet length average = 1
Accepted packet length average = 1
Total in-flight flits = 2 (2 measured)
latency change    = 0.0351213
throughput change = 0.146067
Class 0:
Packet latency average = 21.5491
	minimum = 7
	maximum = 51
Network latency average = 21.5491
	minimum = 7
	maximum = 51
Slowest packet = 1068
Flit latency average = 21.5593
	minimum = 7
	maximum = 51
Slowest flit = 1068
Fragmentation average = 0
	minimum = 0
	maximum = 0
Injected packet rate average = 0.0109375
	minimum = 0.007 (at node 6)
	maximum = 0.015 (at node 5)
Accepted packet rate average = 0.0110625
	minimum = 0.007 (at node 9)
	maximum = 0.015 (at node 5)
Injected flit rate average = 0.0109375
	minimum = 0.007 (at node 6)
	maximum = 0.015 (at node 5)
Accepted flit rate average= 0.0110625
	minimum = 0.007 (at node 9)
	maximum = 0.015 (at node 5)
Injected packet length average = 1
Accepted packet length average = 1
Total in-flight flits = 2 (2 measured)
latency change    = 0.00309896
throughput change = 0.00564972
Class 0:
Packet latency average = 21.1457
	minimum = 7
	maximum = 53
Network latency average = 21.1457
	minimum = 7
	maximum = 53
Slowest packet = 1199
Flit latency average = 21.1589
	minimum = 7
	maximum = 53
Slowest flit = 1199
Fragmentation average = 0
	minimum = 0
	maximum = 0
Injected packet rate average = 0.01075
	minimum = 0.00866667 (at node 2)
	maximum = 0.0153333 (at node 5)
Accepted packet rate average = 0.01075
	minimum = 0.008 (at node 2)
	maximum = 0.0153333 (at node 5)
Injected flit rate average = 0.01075
	minimum = 0.00866667 (at node 2)
	maximum = 0.0153333 (at node 5)
Accepted flit rate average= 0.01075
	minimum = 0.008 (at node 2)
	maximum = 0.0153333 (at node 5)
Injected packet length average = 1
Accepted packet length average = 1
Total in-flight flits = 4 (4 measured)
latency change    = 0.0190802
throughput change = 0.0290698
Class 0:
Packet latency average = 21.3689
	minimum = 7
	maximum = 53
Network latency average = 21.3689
	minimum = 7
	maximum = 53
Slowest packet = 1199
Flit latency average = 21.3765
	minimum = 7
	maximum = 53
Slowest flit = 1199
Fragmentation average = 0
	minimum = 0
	maximum = 0
Injected packet rate average = 0.0104063
	minimum = 0.008 (at node 6)
	maximum = 0.015 (at node 3)
Accepted packet rate average = 0.010375
	minimum = 0.008 (at node 9)
	maximum = 0.014 (at node 12)
Injected flit rate average = 0.0104063
	minimum = 0.008 (at node 6)
	maximum = 0.015 (at node 3)
Accepted flit rate average= 0.010375
	minimum = 0.008 (at node 9)
	maximum = 0.014 (at node 12)
Injected packet length average = 1
Accepted packet length average = 1
Total in-flight flits = 5 (5 measured)
latency change    = 0.0104466
throughput change = 0.0361446
Draining all recorded packets ...
Draining remaining packets ...
Time taken is 3564 cycles
Class 0:
Packet latency average = 22.0133
	minimum = 7
	maximum = 47
Network latency average = 22.0133
	minimum = 7
	maximum = 47
Slowest packet = 1292
Flit latency average = 22.0133
	minimum = 7
	maximum = 47
Slowest flit = 1292
Fragmentation average = 0
	minimum = 0
	maximum = 0
Injected packet rate average = 0.0095
	minimum = 0.002 (at node 11)
	maximum = 0.016 (at node 1)
Accepted packet rate average = 0.009375
	minimum = 0.002 (at node 14)
	maximum = 0.014 (at node 4)
Injected flit rate average = 0.0095
	minimum = 0.002 (at node 11)
	maximum = 0.016 (at node 1)
Accepted flit rate average= 0.009375
	minimum = 0.002 (at node 14)
	maximum = 0.014 (at node 4)
Injected packet length average = 1
Accepted packet length average = 1
Total in-flight flits = 1 (0 measured)
latency change    = 1
throughput change = 1
Class 0:
Packet latency average = 21.5212
	minimum = 7
	maximum = 52
Network latency average = 21.5212
	minimum = 7
	maximum = 52
Slowest packet = 1396
Flit latency average = 21.5212
	minimum = 7
	maximum = 52
Slowest flit = 1396
Fragmentation average = 0
	minimum = 0
	maximum = 0
Injected packet rate average = 0.0104375
	minimum = 0.006 (at node 5)
	maximum = 0.015 (at node 8)
Accepted packet rate average = 0.0103125
	minimum = 0.006 (at node 5)
	maximum = 0.015 (at node 15)
Injected flit rate average = 0.0104375
	minimum = 0.006 (at node 5)
	maximum = 0.015 (at node 8)
Accepted flit rate average= 0.0103125
	minimum = 0.006 (at node 5)
	maximum = 0.015 (at node 15)
Injected packet length average = 1
Accepted packet length average = 1
Total in-flight flits = 2 (0 measured)
latency change    = 0.0228668
throughput change = 0.0909091
Class 0:
Packet latency average = 19.0761
	minimum = 7
	maximum = 49
Network latency average = 19.0761
	minimum = 7
	maximum = 49
Slowest packet = 1488
Flit latency average = 19.0761
	minimum = 7
	maximum = 49
Slowest flit = 1488
Fragmentation average = 0
	minimum = 0
	maximum = 0
Injected packet rate average = 0.0115
	minimum = 0 (at node 7)
	maximum = 0.024 (at node 0)
Accepted packet rate average = 0.0115
	minimum = 0 (at node 7)
	maximum = 0.024 (at node 0)
Injected flit rate average = 0.0115
	minimum = 0 (at node 7)
	maximum = 0.024 (at node 0)
Accepted flit rate average= 0.0115
	minimum = 0 (at node 7)
	maximum = 0.024 (at node 0)
Injected packet length average = 1
Accepted packet length average = 1
Total in-flight flits = 2 (0 measured)
latency change    = 0.128178
throughput change = 0.103261
Warmed up ...Time used is 1500 cycles
Class 0:
Packet latency average = 20.044
	minimum = 7
	maximum = 50
Network latency average = 20.044
	minimum = 7
	maximum = 50
Slowest packet = 1598
Flit latency average = 20.2258
	minimum = 7
	maximum = 50
Slowest flit = 1598
Fragmentation average = 0
	minimum = 0
	maximum = 0
Injected packet rate average = 0.01175
	minimum = 0.004 (at node 9)
	maximum = 0.022 (at node 14)
Accepted packet rate average = 0.011625
	minimum = 0.004 (at node 4)
	maximum = 0.022 (at node 11)
Injected flit rate average = 0.01175
	minimum = 0.004 (at node 9)
	maximum = 0.022 (at node 14)
Accepted flit rate average= 0.011625
	minimum = 0.004 (at node 4)
	maximum = 0.022 (at node 11)
Injected packet length average = 1
Accepted packet length average = 1
Total in-flight flits = 3 (3 measured)
latency change    = 0.0482873
throughput change = 0.0107527
Class 0:
Packet latency average = 20.32
	minimum = 7
	maximum = 54
Network latency average = 20.32
	minimum = 7
	maximum = 54
Slowest packet = 1638
Flit latency average = 20.4124
	minimum = 7
	maximum = 54
Slowest flit = 1638
Fragmentation average = 0
	minimum = 0
	maximum = 0
Injected packet rate average = 0.011375
	minimum = 0.005 (at node 3)
	maximum = 0.019 (at node 14)
Accepted packet rate average = 0.0110625
	minimum = 0.005 (at node 12)
	maximum = 0.019 (at node 11)
Injected flit rate average = 0.011375
	minimum = 0.005 (at node 3)
	maximum = 0.019 (at node 14)
Accepted flit rate average= 0.0110625
	minimum = 0.005 (at node 12)
	maximum = 0.019 (at node 11)
Injected packet length average = 1
Accepted packet length average = 1
Total in-flight flits = 7 (7 measured)
latency change    = 0.0135848
throughput change = 0.0508475
Class 0:
Packet latency average = 21.3978
	minimum = 7
	maximum = 54
Network latency average = 21.3978
	minimum = 7
	maximum = 54
Slowest packet = 1638
Flit latency average = 21.4502
	minimum = 7
	maximum = 54
Slowest flit = 1638
Fragmentation average = 0
	minimum = 0
	maximum = 0
Injected packet rate average = 0.0114167
	minimum = 0.00466667 (at node 1)
	maximum = 0.018 (at node 6)
Accepted packet rate average = 0.0112917
	minimum = 0.00466667 (at node 4)
	maximum = 0.018 (at node 9)
Injected flit rate average = 0.0114167
	minimum = 0.00466667 (at node 1)
	maximum = 0.018 (at node 6)
Accepted flit rate average= 0.0112917
	minimum = 0.00466667 (at node 4)
	maximum = 0.018 (at node 9)
Injected packet length average = 1
Accepted packet length average = 1
Total in-flight flits = 5 (5 measured)
latency change    = 0.0503683
throughput change = 0.0202952
Class 0:
Packet latency average = 21.2563
	minimum = 7
	maximum = 57
Network latency average = 21.2563
	minimum = 7
	maximum = 57
Slowest packet = 1814
Flit latency average = 21.2964
	minimum = 7
	maximum = 57
Slowest flit = 1814
Fragmentation average = 0
	minimum = 0
	maximum = 0
Injected packet rate average = 0.0113125
	minimum = 0.006 (at node 9)
	maximum = 0.0155 (at node 6)
Accepted packet rate average = 0.0112812
	minimum = 0.0065 (at node 6)
	maximum = 0.0155 (at node 9)
Injected flit rate average = 0.0113125
	minimum = 0.006 (at node 9)
	maximum = 0.0155 (at node 6)
Accepted flit rate average= 0.0112812
	minimum = 0.0065 (at node 6)
	maximum = 0.0155 (at node 9)
Injected packet length average = 1
Accepted packet length average = 1
Total in-flight flits = 3 (3 measured)
latency change    = 0.00665696
throughput change = 0.000923361
Class 0:
Packet latency average = 21.319
	minimum = 7
	maximum = 68
Network latency average = 21.319
	minimum = 7
	maximum = 68
Slowest packet = 1919
Flit latency average = 21.3514
	minimum = 7
	maximum = 68
Slowest flit = 1919
Fragmentation average = 0
	minimum = 0
	maximum = 0
Injected packet rate average = 0.01105
	minimum = 0.0052 (at node 9)
	maximum = 0.0144 (at node 6)
Accepted packet rate average = 0.0111
	minimum = 0.0056 (at node 6)
	maximum = 0.0144 (at node 9)
Injected flit rate average = 0.01105
	minimum = 0.0052 (at node 9)
	maximum = 0.0144 (at node 6)
Accepted flit rate average= 0.0111
	minimum = 0.0056 (at node 6)
	maximum = 0.0144 (at node 9)
Injected packet length average = 1
Accepted packet length average = 1
Total in-flight flits = 0 (0 measured)
latency change    = 0.00294278
throughput change = 0.0163288
Class 0:
Packet latency average = 21.2918
	minimum = 7
	maximum = 68
Network latency average = 21.2918
	minimum = 7
	maximum = 68
Slowest packet = 1919
Flit latency average = 21.3198
	minimum = 7
	maximum = 68
Slowest flit = 1919
Fragmentation average = 0
	minimum = 0
	maximum = 0
Injected packet rate average = 0.0107708
	minimum = 0.005 (at node 9)
	maximum = 0.0143333 (at node 6)
Accepted packet rate average = 0.01075
	minimum = 0.00533333 (at node 6)
	maximum = 0.0143333 (at node 9)
Injected flit rate average = 0.0107708
	minimum = 0.005 (at node 9)
	maximum = 0.0143333 (at node 6)
Accepted flit rate average= 0.01075
	minimum = 0.00533333 (at node 6)
	maximum = 0.0143333 (at node 9)
Injected packet length average = 1
Accepted packet length average = 1
Total in-flight flits = 3 (3 measured)
latency change    = 0.00127635
throughput change = 0.0325581
Draining all recorded packets ...
Draining remaining packets ...
Time taken is 4567 cycles
Class 0:
Packet latency average = 20.3944
	minimum = 7
	maximum = 47
Network latency average = 20.3944
	minimum = 7
	maximum = 47
Slowest packet = 2077
Flit latency average = 20.3944
	minimum = 7
	maximum = 47
Slowest flit = 2077
Fragmentation average = 0
	minimum = 0
	maximum = 0
Injected packet rate average = 0.0095
	minimum = 0.004 (at node 3)
	maximum = 0.018 (at node 0)
Accepted packet rate average = 0.008875
	minimum = 0.004 (at node 2)
	maximum = 0.018 (at node 0)
Injected flit rate average = 0.0095
	minimum = 0.004 (at node 3)
	maximum = 0.018 (at node 0)
Accepted flit rate average= 0.008875
	minimum = 0.004 (at node 2)
	maximum = 0.018 (at node 0)
Injected packet length average = 1
Accepted packet length average = 1
Total in-flight flits = 5 (0 measured)
latency change    = 1
throughput change = 1
Class 0:
Packet latency average = 21.5127
	minimum = 7
	maximum = 47
Network latency average = 21.5127
	minimum = 7
	maximum = 47
Slowest packet = 2077
Flit latency average = 21.5127
	minimum = 7
	maximum = 47
Slowest flit = 2077
Fragmentation average = 0
	minimum = 0
	maximum = 0
Injected packet rate average = 0.0101875
	minimum = 0.004 (at node 6)
	maximum = 0.015 (at node 9)
Accepted packet rate average = 0.009875
	minimum = 0.004 (at node 9)
	maximum = 0.015 (at node 6)
Injected flit rate average = 0.0101875
	minimum = 0.004 (at node 6)
	maximum = 0.015 (at node 9)
Accepted flit rate average= 0.009875
	minimum = 0.004 (at node 9)
	maximum = 0.015 (at node 6)
Injected packet length average = 1
Accepted packet length average = 1
Total in-flight flits = 5 (0 measured)
latency change    = 0.051983
throughput change = 0.101266
Class 0:
Packet latency average = 21.6076
	minimum = 7
	maximum = 47
Network latency average = 21.6076
	minimum = 7
	maximum = 47
Slowest packet = 2260
Flit latency average = 21.6076
	minimum = 7
	maximum = 47
Slowest flit = 2260
Fragmentation average = 0
	minimum = 0
	maximum = 0
Injected packet rate average = 0.0095
	minimum = 0.004 (at node 8)
	maximum = 0.016 (at node 4)
Accepted packet rate average = 0.009875
	minimum = 0.004 (at node 2)
	maximum = 0.016 (at node 1)
Injected flit rate average = 0.0095
	minimum = 0.004 (at node 8)
	maximum = 0.016 (at node 4)
Accepted flit rate average= 0.009875
	minimum = 0.004 (at node 2)
	maximum = 0.016 (at node 1)
Injected packet length average = 1
Accepted packet length average = 1
Total in-flight flits = 2 (0 measured)
latency change    = 0.00439367
throughput change = 0
Warmed up ...Time used is 1500 cycles
Class 0:
Packet latency average = 18.9595
	minimum = 7
	maximum = 47
Network latency average = 18.9595
	minimum = 7
	maximum = 47
Slowest packet = 2352
Flit latency average = 19.4342
	minimum = 7
	maximum = 47
Slowest flit = 2304
Fragmentation average = 0
	minimum = 0
	maximum = 0
Injected packet rate average = 0.009625
	minimum = 0 (at node 14)
	maximum = 0.022 (at node 5)
Accepted packet rate average = 0.0095
	minimum = 0 (at node 11)
	maximum = 0.022 (at node 5)
Injected flit rate average = 0.009625
	minimum = 0 (at node 14)
	maximum = 0.022 (at node 5)
Accepted flit rate average= 0.0095
	minimum = 0 (at node 11)
	maximum = 0.022 (at node 5)
Injected packet length average = 1
Accepted packet length average = 1
Total in-flight flits = 3 (3 measured)
latency change    = 0.139674
throughput change = 0.0394737
Class 0:
Packet latency average = 20.1548
	minimum = 7
	maximum = 47
Network latency average = 20.1548
	minimum = 7
	maximum = 47
Slowest packet = 2352
Flit latency average = 20.3694
	minimum = 7
	maximum = 47
Slowest flit = 2304
Fragmentation average = 0
	minimum = 0
	maximum = 0
Injected packet rate average = 0.0096875
	minimum = 0.004 (at node 0)
	maximum = 0.015 (at node 5)
Accepted packet rate average = 0.0098125
	minimum = 0.004 (at node 0)
	maximum = 0.015 (at node 5)
Injected flit rate average = 0.0096875
	minimum = 0.004 (at node 0)
	maximum = 0.015 (at node 5)
Accepted flit rate average= 0.0098125
	minimum = 0.004 (at node 0)
	maximum = 0.015 (at node 5)
Injected packet length average = 1
Accepted packet length average = 1
Total in-flight flits = 0 (0 measured)
latency change    = 0.0593098
throughput change = 0.0318471
Class 0:
Packet latency average = 19.8105
	minimum = 7
	maximum = 47
Network latency average = 19.8105
	minimum = 7
	maximum = 47
Slowest packet = 2352
Flit latency average = 19.948
	minimum = 7
	maximum = 47
Slowest flit = 2304
Fragmentation average = 0
	minimum = 0
	maximum = 0
Injected packet rate average = 0.010375
	minimum = 0.006 (at node 3)
	maximum = 0.0126667 (at node 5)
Accepted packet rate average = 0.0104167
	minimum = 0.00666667 (at node 12)
	maximum = 0.0126667 (at node 5)
Injected flit rate average = 0.010375
	minimum = 0.006 (at node 3)
	maximum = 0.0126667 (at node 5)
Accepted flit rate average= 0.0104167
	minimum = 0.00666667 (at node 12)
	maximum = 0.0126667 (at node 5)
Injected packet length average = 1
Accepted packet length average = 1
Total in-flight flits = 1 (1 measured)
latency change    = 0.0173825
throughput change = 0.058
Class 0:
Packet latency average = 20.0901
	minimum = 7
	maximum = 56
Network latency average = 20.0901
	minimum = 7
	maximum = 56
Slowest packet = 2602
Flit latency average = 20.191
	minimum = 7
	maximum = 56
Slowest flit = 2602
Fragmentation average = 0
	minimum = 0
	maximum = 0
Injected packet rate average = 0.0104375
	minimum = 0.0075 (at node 14)
	maximum = 0.0135 (at node 15)
Accepted packet rate average = 0.0104688
	minimum = 0.0075 (at node 11)
	maximum = 0.0135 (at node 15)
Injected flit rate average = 0.0104375
	minimum = 0.0075 (at node 14)
	maximum = 0.0135 (at node 15)
Accepted flit rate average= 0.0104688
	minimum = 0.0075 (at node 11)
	maximum = 0.0135 (at node 15)
Injected packet length average = 1
Accepted packet length average = 1
Total in-flight flits = 1 (1 measured)
latency change    = 0.0139176
throughput change = 0.00497512
Class 0:
Packet latency average = 20.6966
	minimum = 7
	maximum = 56
Network latency average = 20.6966
	minimum = 7
	maximum = 56
Slowest packet = 2602
Flit latency average = 20.7754
	minimum = 7
	maximum = 56
Slowest flit = 2602
Fragmentation average = 0
	minimum = 0
	maximum = 0
Injected packet rate average = 0.0104
	minimum = 0.0076 (at node 14)
	maximum = 0.0128 (at node 1)
Accepted packet rate average = 0.01035
	minimum = 0.0076 (at node 11)
	maximum = 0.0128 (at node 4)
Injected flit rate average = 0.0104
	minimum = 0.0076 (at node 14)
	maximum = 0.0128 (at node 1)
Accepted flit rate average= 0.01035
	minimum = 0.0076 (at node 11)
	maximum = 0.0128 (at node 4)
Injected packet length average = 1
Accepted packet length average = 1
Total in-flight flits = 4 (4 measured)
latency change    = 0.0293049
throughput change = 0.0114734
Class 0:
Packet latency average = 20.6709
	minimum = 7
	maximum = 56
Network latency average = 20.6709
	minimum = 7
	maximum = 56
Slowest packet = 2602
Flit latency average = 20.739
	minimum = 7
	maximum = 56
Slowest flit = 2602
Fragmentation average = 0
	minimum = 0
	maximum = 0
Injected packet rate average = 0.0100833
	minimum = 0.007 (at node 7)
	maximum = 0.0123333 (at node 8)
Accepted packet rate average = 0.00997917
	minimum = 0.00733333 (at node 13)
	maximum = 0.0123333 (at node 2)
Injected flit rate average = 0.0100833
	minimum = 0.007 (at node 7)
	maximum = 0.0123333 (at node 8)
Accepted flit rate average= 0.00997917
	minimum = 0.00733333 (at node 13)
	maximum = 0.0123333 (at node 2)
Injected packet length average = 1
Accepted packet length average = 1
Total in-flight flits = 7 (7 measured)
latency change    = 0.00124535
throughput change = 0.0371608
Draining all recorded packets ...
Draining remaining packets ...
Time taken is 4557 cycles
Class 0:
Packet latency average = 20.0147
	minimum = 7
	maximum = 48
Network latency average = 20.0147
	minimum = 7
	maximum = 48
Slowest packet = 2830
Flit latency average = 20.0147
	minimum = 7
	maximum = 48
Slowest flit = 2830
Fragmentation average = 0
	minimum = 0
	maximum = 0
Injected packet rate average = 0.008875
	minimum = 0.002 (at node 8)
	maximum = 0.018 (at node 6)
Accepted packet rate average = 0.0085
	minimum = 0.002 (at node 2)
	maximum = 0.018 (at node 9)
Injected flit rate average = 0.008875
	minimum = 0.002 (at node 8)
	maximum = 0.018 (at node 6)
Accepted flit rate average= 0.0085
	minimum = 0.002 (at node 2)
	maximum = 0.018 (at node 9)
Injected packet length average = 1
Accepted packet length average = 1
Total in-flight flits = 3 (0 measured)
latency change    = 1
throughput change = 1
Class 0:
Packet latency average = 19.7671
	minimum = 7
	maximum = 48
Network latency average = 19.7671
	minimum = 7
	maximum = 48
Slowest packet = 2830
Flit latency average = 19.7671
	minimum = 7
	maximum = 48
Slowest flit = 2830
Fragmentation average = 0
	minimum = 0
	maximum = 0
Injected packet rate average = 0.00925
	minimum = 0.005 (at node 3)
	maximum = 0.013 (at node 4)
Accepted packet rate average = 0.009125
	minimum = 0.004 (at node 12)
	maximum = 0.013 (at node 1)
Injected flit rate average = 0.00925
	minimum = 0.005 (at node 3)
	maximum = 0.013 (at node 4)
Accepted flit rate average= 0.009125
	minimum = 0.004 (at node 12)
	maximum = 0.013 (at node 1)
Injected packet length average = 1
Accepted packet length average = 1
Total in-flight flits = 2 (0 measured)
latency change    = 0.012525
throughput change = 0.0684932
Class 0:
Packet latency average = 21.2899
	minimum = 7
	maximum = 49
Network latency average = 21.2899
	minimum = 7
	maximum = 49
Slowest packet = 2975
Flit latency average = 21.2899
	minimum = 7
	maximum = 49
Slowest flit = 2975
Fragmentation average = 0
	minimum = 0
	maximum = 0
Injected packet rate average = 0.00875
	minimum = 0.004 (at node 14)
	maximum = 0.012 (at node 0)
Accepted packet rate average = 0.008625
	minimum = 0.004 (at node 11)
	maximum = 0.012 (at node 0)
Injected flit rate average = 0.00875
	minimum = 0.004 (at node 14)
	maximum = 0.012 (at node 0)
Accepted flit rate average= 0.008625
	minimum = 0.004 (at node 11)
	maximum = 0.012 (at node 0)
Injected packet length average = 1
Accepted packet length average = 1
Total in-flight flits = 3 (0 measured)
latency change    = 0.0715238
throughput change = 0.057971
Warmed up ...Time used is 1500 cycles
Class 0:
Packet latency average = 22.746
	minimum = 7
	maximum = 47
Network latency average = 22.746
	minimum = 7
	maximum = 47
Slowest packet = 3033
Flit latency average = 23.4091
	minimum = 7
	maximum = 47
Slowest flit = 3005
Fragmentation average = 0
	minimum = 0
	maximum = 0
Injected packet rate average = 0.008375
	minimum = 0.002 (at node 10)
	maximum = 0.02 (at node 12)
Accepted packet rate average = 0.00825
	minimum = 0.002 (at node 10)
	maximum = 0.02 (at node 3)
Injected flit rate average = 0.008375
	minimum = 0.002 (at node 10)
	maximum = 0.02 (at node 12)
Accepted flit rate average= 0.00825
	minimum = 0.002 (at node 10)
	maximum = 0.02 (at node 3)
Injected packet length average = 1
Accepted packet length average = 1
Total in-flight flits = 4 (4 measured)
latency change    = 0.0640189
throughput change = 0.0454545
Class 0:
Packet latency average = 23.7687
	minimum = 7
	maximum = 53
Network latency average = 23.7687
	minimum = 7
	maximum = 53
Slowest packet = 3127
Flit latency average = 24.04
	minimum = 7
	maximum = 53
Slowest flit = 3127
Fragmentation average = 0
	minimum = 0
	maximum = 0
Injected packet rate average = 0.0095
	minimum = 0.005 (at node 0)
	maximum = 0.023 (at node 12)
Accepted packet rate average = 0.009375
	minimum = 0.004 (at node 1)
	maximum = 0.021 (at node 3)
Injected flit rate average = 0.0095
	minimum = 0.005 (at node 0)
	maximum = 0.023 (at node 12)
Accepted flit rate average= 0.009375
	minimum = 0.004 (at node 1)
	maximum = 0.021 (at node 3)
Injected packet length average = 1
Accepted packet length average = 1
Total in-flight flits = 5 (5 measured)
latency change    = 0.0430261
throughput change = 0.12
Class 0:
Packet latency average = 22.5336
	minimum = 7
	maximum = 53
Network latency average = 22.5336
	minimum = 7
	maximum = 53
Slowest packet = 3127
Flit latency average = 22.7301
	minimum = 7
	maximum = 53
Slowest flit = 3127
Fragmentation average = 0
	minimum = 0
	maximum = 0
Injected packet rate average = 0.00941667
	minimum = 0.006 (at node 4)
	maximum = 0.0193333 (at node 12)
Accepted packet rate average = 0.00941667
	minimum = 0.006 (at node 1)
	maximum = 0.0186667 (at node 3)
Injected flit rate average = 0.00941667
	minimum = 0.006 (at node 4)
	maximum = 0.0193333 (at node 12)
Accepted flit rate average= 0.00941667
	minimum = 0.006 (at node 1)
	maximum = 0.0186667 (at node 3)
Injected packet length average = 1
Accepted packet length average = 1
Total in-flight flits = 3 (3 measured)
latency change    = 0.0548103
throughput change = 0.00442478
Class 0:
Packet latency average = 21.837
	minimum = 7
	maximum = 53
Network latency average = 21.837
	minimum = 7
	maximum = 53
Slowest packet = 3127
Flit latency average = 21.9814
	minimum = 7
	maximum = 53
Slowest flit = 3127
Fragmentation average = 0
	minimum = 0
	maximum = 0
Injected packet rate average = 0.0100313
	minimum = 0.0065 (at node 4)
	maximum = 0.0175 (at node 12)
Accepted packet rate average = 0.0100625
	minimum = 0.0065 (at node 1)
	maximum = 0.0175 (at node 3)
Injected flit rate average = 0.0100313
	minimum = 0.0065 (at node 4)
	maximum = 0.0175 (at node 12)
Accepted flit rate average= 0.0100625
	minimum = 0.0065 (at node 1)
	maximum = 0.0175 (at node 3)
Injected packet length average = 1
Accepted packet length average = 1
Total in-flight flits = 2 (2 measured)
latency change    = 0.0319019
throughput change = 0.0641822
Class 0:
Packet latency average = 21.9259
	minimum = 7
	maximum = 56
Network latency average = 21.9259
	minimum = 7
	maximum = 56
Slowest packet = 3383
Flit latency average = 22.0392
	minimum = 7
	maximum = 56
Slowest flit = 3383
Fragmentation average = 0
	minimum = 0
	maximum = 0
Injected packet rate average = 0.01015
	minimum = 0.0076 (at node 9)
	maximum = 0.016 (at node 12)
Accepted packet rate average = 0.0102
	minimum = 0.0076 (at node 6)
	maximum = 0.016 (at node 3)
Injected flit rate average = 0.01015
	minimum = 0.0076 (at node 9)
	maximum = 0.016 (at node 12)
Accepted flit rate average= 0.0102
	minimum = 0.0076 (at node 6)
	maximum = 0.016 (at node 3)
Injected packet length average = 1
Accepted packet length average = 1
Total in-flight flits = 1 (1 measured)
latency change    = 0.00405617
throughput change = 0.0134804
Class 0:
Packet latency average = 21.7004
	minimum = 7
	maximum = 56
Network latency average = 21.7004
	minimum = 7
	maximum = 56
Slowest packet = 3383
Flit latency average = 21.7967
	minimum = 7
	maximum = 56
Slowest flit = 3383
Fragmentation average = 0
	minimum = 0
	maximum = 0
Injected packet rate average = 0.0102292
	minimum = 0.00733333 (at node 9)
	maximum = 0.0143333 (at node 12)
Accepted packet rate average = 0.0101458
	minimum = 0.007 (at node 6)
	maximum = 0.0143333 (at node 3)
Injected flit rate average = 0.0102292
	minimum = 0.00733333 (at node 9)
	maximum = 0.0143333 (at node 12)
Accepted flit rate average= 0.0101458
	minimum = 0.007 (at node 6)
	maximum = 0.0143333 (at node 3)
Injected packet length average = 1
Accepted packet length average = 1
Total in-flight flits = 7 (7 measured)
latency change    = 0.0103921
throughput change = 0.00533881
Class 0:
Packet latency average = 21.5538
	minimum = 7
	maximum = 56
Network latency average = 21.5538
	minimum = 7
	maximum = 56
Slowest packet = 3383
Flit latency average = 21.6368
	minimum = 7
	maximum = 56
Slowest flit = 3383
Fragmentation average = 0
	minimum = 0
	maximum = 0
Injected packet rate average = 0.0101786
	minimum = 0.00742857 (at node 9)
	maximum = 0.0128571 (at node 12)
Accepted packet rate average = 0.0101786
	minimum = 0.00742857 (at node 6)
	maximum = 0.0128571 (at node 3)
Injected flit rate average = 0.0101786
	minimum = 0.00742857 (at node 9)
	maximum = 0.0128571 (at node 12)
Accepted flit rate average= 0.0101786
	minimum = 0.00742857 (at node 6)
	maximum = 0.0128571 (at node 3)
Injected packet length average = 1
Accepted packet length average = 1
Total in-flight flits = 3 (3 measured)
latency change    = 0.00680258
throughput change = 0.00321637
Draining all recorded packets ...
Draining remaining packets ...
Time taken is 5045 cycles
Class 0:
Packet latency average = 20.5256
	minimum = 7
	maximum = 50
Network latency average = 20.5256
	minimum = 7
	maximum = 50
Slowest packet = 3618
Flit latency average = 20.5256
	minimum = 7
	maximum = 50
Slowest flit = 3618
Fragmentation average = 0
	minimum = 0
	maximum = 0
Injected packet rate average = 0.0105
	minimum = 0 (at node 10)
	maximum = 0.018 (at node 7)
Accepted packet rate average = 0.00975
	minimum = 0 (at node 10)
	maximum = 0.018 (at node 6)
Injected flit rate average = 0.0105
	minimum = 0 (at node 10)
	maximum = 0.018 (at node 7)
Accepted flit rate average= 0.00975
	minimum = 0 (at node 10)
	maximum = 0.018 (at node 6)
Injected packet length average = 1
Accepted packet length average = 1
Total in-flight flits = 6 (0 measured)
latency change    = 1
throughput change = 1
Class 0:
Packet latency average = 20.8148
	minimum = 7
	maximum = 50
Network latency average = 20.8148
	minimum = 7
	maximum = 50
Slowest packet = 3618
Flit latency average = 20.8148
	minimum = 7
	maximum = 50
Slowest flit = 3618
Fragmentation average = 0
	minimum = 0
	maximum = 0
Injected packet rate average = 0.0103125
	minimum = 0.005 (at node 2)
	maximum = 0.017 (at node 13)
Accepted packet rate average = 0.010125
	minimum = 0.005 (at node 8)
	maximum = 0.016 (at node 7)
Injected flit rate average = 0.0103125
	minimum = 0.005 (at node 2)
	maximum = 0.017 (at node 13)
Accepted flit rate average= 0.010125
	minimum = 0.005 (at node 8)
	maximum = 0.016 (at node 7)
Injected packet length average = 1
Accepted packet length average = 1
Total in-flight flits = 3 (0 measured)
latency change    = 0.0138927
throughput change = 0.037037
Class 0:
Packet latency average = 21.2771
	minimum = 7
	maximum = 47
Network latency average = 21.2771
	minimum = 7
	maximum = 47
Slowest packet = 3748
Flit latency average = 21.2771
	minimum = 7
	maximum = 47
Slowest flit = 3748
Fragmentation average = 0
	minimum = 0
	maximum = 0
Injected packet rate average = 0.010125
	minimum = 0.002 (at node 1)
	maximum = 0.016 (at node 8)
Accepted packet rate average = 0.010375
	minimum = 0.002 (at node 4)
	maximum = 0.016 (at node 2)
Injected flit rate average = 0.010125
	minimum = 0.002 (at node 1)
	maximum = 0.016 (at node 8)
Accepted flit rate average= 0.010375
	minimum = 0.002 (at node 4)
	maximum = 0.016 (at node 2)
Injected packet length average = 1
Accepted packet length average = 1
Total in-flight flits = 1 (0 measured)
latency change    = 0.0217273
throughput change = 0.0240964
Warmed up ...Time used is 1500 cycles
Class 0:
Packet latency average = 21.9831
	minimum = 7
	maximum = 47
Network latency average = 21.9831
	minimum = 7
	maximum = 47
Slowest packet = 3846
Flit latency average = 21.7333
	minimum = 7
	maximum = 47
Slowest flit = 3846
Fragmentation average = 0
	minimum = 0
	maximum = 0
Injected packet rate average = 0.00775
	minimum = 0 (at node 0)
	maximum = 0.016 (at node 4)
Accepted packet rate average = 0.0075
	minimum = 0 (at node 0)
	maximum = 0.016 (at node 1)
Injected flit rate average = 0.00775
	minimum = 0 (at node 0)
	maximum = 0.016 (at node 4)
Accepted flit rate average= 0.0075
	minimum = 0 (at node 0)
	maximum = 0.016 (at node 1)
Injected packet length average = 1
Accepted packet length average = 1
Total in-flight flits = 3 (3 measured)
latency change    = 0.032113
throughput change = 0.383333
Class 0:
Packet latency average = 21.3413
	minimum = 7
	maximum = 57
Network latency average = 21.3413
	minimum = 7
	maximum = 57
Slowest packet = 3927
Flit latency average = 21.2283
	minimum = 7
	maximum = 57
Slowest flit = 3927
Fragmentation average = 0
	minimum = 0
	maximum = 0
Injected packet rate average = 0.00825
	minimum = 0.003 (at node 0)
	maximum = 0.014 (at node 4)
Accepted packet rate average = 0.0079375
	minimum = 0.003 (at node 0)
	maximum = 0.014 (at node 1)
Injected flit rate average = 0.00825
	minimum = 0.003 (at node 0)
	maximum = 0.014 (at node 4)
Accepted flit rate average= 0.0079375
	minimum = 0.003 (at node 0)
	maximum = 0.014 (at node 1)
Injected packet length average = 1
Accepted packet length average = 1
Total in-flight flits = 6 (6 measured)
latency change    = 0.0300723
throughput change = 0.0551181
Class 0:
Packet latency average = 21.4293
	minimum = 7
	maximum = 57
Network latency average = 21.4293
	minimum = 7
	maximum = 57
Slowest packet = 3927
Flit latency average = 21.3592
	minimum = 7
	maximum = 57
Slowest flit = 3927
Fragmentation average = 0
	minimum = 0
	maximum = 0
Injected packet rate average = 0.00870833
	minimum = 0.00466667 (at node 5)
	maximum = 0.012 (at node 9)
Accepted packet rate average = 0.00858333
	minimum = 0.00466667 (at node 5)
	maximum = 0.012 (at node 3)
Injected flit rate average = 0.00870833
	minimum = 0.00466667 (at node 5)
	maximum = 0.012 (at node 9)
Accepted flit rate average= 0.00858333
	minimum = 0.00466667 (at node 5)
	maximum = 0.012 (at node 3)
Injected packet length average = 1
Accepted packet length average = 1
Total in-flight flits = 4 (4 measured)
latency change    = 0.00410646
throughput change = 0.0752427
Class 0:
Packet latency average = 21.8304
	minimum = 7
	maximum = 57
Network latency average = 21.8304
	minimum = 7
	maximum = 57
Slowest packet = 3927
Flit latency average = 21.7782
	minimum = 7
	maximum = 57
Slowest flit = 3927
Fragmentation average = 0
	minimum = 0
	maximum = 0
Injected packet rate average = 0.00890625
	minimum = 0.0035 (at node 5)
	maximum = 0.013 (at node 12)
Accepted packet rate average = 0.008875
	minimum = 0.0035 (at node 5)
	maximum = 0.013 (at node 3)
Injected flit rate average = 0.00890625
	minimum = 0.0035 (at node 5)
	maximum = 0.013 (at node 12)
Accepted flit rate average= 0.008875
	minimum = 0.0035 (at node 5)
	maximum = 0.013 (at node 3)
Injected packet length average = 1
Accepted packet length average = 1
Total in-flight flits = 2 (2 measured)
latency change    = 0.0183744
throughput change = 0.0328638
Class 0:
Packet latency average = 22.1156
	minimum = 7
	maximum = 66
Network latency average = 22.1156
	minimum = 7
	maximum = 66
Slowest packet = 4117
Flit latency average = 22.0751
	minimum = 7
	maximum = 66
Slowest flit = 4117
Fragmentation average = 0
	minimum = 0
	maximum = 0
Injected packet rate average = 0.00935
	minimum = 0.0044 (at node 5)
	maximum = 0.0124 (at node 8)
Accepted packet rate average = 0.009325
	minimum = 0.0044 (at node 5)
	maximum = 0.012 (at node 2)
Injected flit rate average = 0.00935
	minimum = 0.0044 (at node 5)
	maximum = 0.0124 (at node 8)
Accepted flit rate average= 0.009325
	minimum = 0.0044 (at node 5)
	maximum = 0.012 (at node 2)
Injected packet length average = 1
Accepted packet length average = 1
Total in-flight flits = 2 (2 measured)
latency change    = 0.012896
throughput change = 0.0482574
Class 0:
Packet latency average = 21.9912
	minimum = 7
	maximum = 66
Network latency average = 21.9912
	minimum = 7
	maximum = 66
Slowest packet = 4117
Flit latency average = 21.9582
	minimum = 7
	maximum = 66
Slowest flit = 4117
Fragmentation average = 0
	minimum = 0
	maximum = 0
Injected packet rate average = 0.0095
	minimum = 0.00433333 (at node 5)
	maximum = 0.0133333 (at node 4)
Accepted packet rate average = 0.00947917
	minimum = 0.00433333 (at node 5)
	maximum = 0.013 (at node 1)
Injected flit rate average = 0.0095
	minimum = 0.00433333 (at node 5)
	maximum = 0.0133333 (at node 4)
Accepted flit rate average= 0.00947917
	minimum = 0.00433333 (at node 5)
	maximum = 0.013 (at node 1)
Injected packet length average = 1
Accepted packet length average = 1
Total in-flight flits = 2 (2 measured)
latency change    = 0.0056569
throughput change = 0.0162637
Draining all recorded packets ...
Draining remaining packets ...
Time taken is 4546 cycles
Class 0:
Packet latency average = 19.6154
	minimum = 7
	maximum = 47
Network latency average = 19.6154
	minimum = 7
	maximum = 47
Slowest packet = 4318
Flit latency average = 19.6154
	minimum = 7
	maximum = 47
Slowest flit = 4318
Fragmentation average = 0
	minimum = 0
	maximum = 0
Injected packet rate average = 0.010125
	minimum = 0.006 (at node 8)
	maximum = 0.016 (at node 10)
Accepted packet rate average = 0.00975
	minimum = 0.006 (at node 2)
	maximum = 0.016 (at node 10)
Injected flit rate average = 0.010125
	minimum = 0.006 (at node 8)
	maximum = 0.016 (at node 10)
Accepted flit rate average= 0.00975
	minimum = 0.006 (at node 2)
	maximum = 0.016 (at node 10)
Injected packet length average = 1
Accepted packet length average = 1
Total in-flight flits = 3 (0 measured)
latency change    = 1
throughput change = 1
Class 0:
Packet latency average = 20.9017
	minimum = 7
	maximum = 47
Network latency average = 20.9017
	minimum = 7
	maximum = 47
Slowest packet = 4318
Flit latency average = 20.9017
	minimum = 7
	maximum = 47
Slowest flit = 4318
Fragmentation average = 0
	minimum = 0
	maximum = 0
Injected packet rate average = 0.0108125
	minimum = 0.007 (at node 8)
	maximum = 0.015 (at node 15)
Accepted packet rate average = 0.0108125
	minimum = 0.007 (at node 2)
	maximum = 0.015 (at node 15)
Injected flit rate average = 0.0108125
	minimum = 0.007 (at node 8)
	maximum = 0.015 (at node 15)
Accepted flit rate average= 0.0108125
	minimum = 0.007 (at node 2)
	maximum = 0.015 (at node 15)
Injected packet length average = 1
Accepted packet length average = 1
Total in-flight flits = 0 (0 measured)
latency change    = 0.0615427
throughput change = 0.0982659
Class 0:
Packet latency average = 22.359
	minimum = 7
	maximum = 56
Network latency average = 22.359
	minimum = 7
	maximum = 56
Slowest packet = 4505
Flit latency average = 22.359
	minimum = 7
	maximum = 56
Slowest flit = 4505
Fragmentation average = 0
	minimum = 0
	maximum = 0
Injected packet rate average = 0.0105
	minimum = 0.002 (at node 7)
	maximum = 0.018 (at node 2)
Accepted packet rate average = 0.00975
	minimum = 0.002 (at node 6)
	maximum = 0.016 (at node 2)
Injected flit rate average = 0.0105
	minimum = 0.002 (at node 7)
	maximum = 0.018 (at node 2)
Accepted flit rate average= 0.00975
	minimum = 0.002 (at node 6)
	maximum = 0.016 (at node 2)
Injected packet length average = 1
Accepted packet length average = 1
Total in-flight flits = 6 (0 measured)
latency change    = 0.0651747
throughput change = 0.108974
Warmed up ...Time used is 1500 cycles
Class 0:
Packet latency average = 19.2812
	minimum = 7
	maximum = 47
Network latency average = 19.2812
	minimum = 7
	maximum = 47
Slowest packet = 4548
Flit latency average = 19.5392
	minimum = 7
	maximum = 47
Slowest flit = 4548
Fragmentation average = 0
	minimum = 0
	maximum = 0
Injected packet rate average = 0.012625
	minimum = 0.004 (at node 6)
	maximum = 0.024 (at node 15)
Accepted packet rate average = 0.01275
	minimum = 0.004 (at node 9)
	maximum = 0.024 (at node 15)
Injected flit rate average = 0.012625
	minimum = 0.004 (at node 6)
	maximum = 0.024 (at node 15)
Accepted flit rate average= 0.01275
	minimum = 0.004 (at node 9)
	maximum = 0.024 (at node 15)
Injected packet length average = 1
Accepted packet length average = 1
Total in-flight flits = 5 (5 measured)
latency change    = 0.159623
throughput change = 0.235294
Class 0:
Packet latency average = 20.0769
	minimum = 7
	maximum = 55
Network latency average = 20.0769
	minimum = 7
	maximum = 55
Slowest packet = 4693
Flit latency average = 20.2
	minimum = 7
	maximum = 55
Slowest flit = 4693
Fragmentation average = 0
	minimum = 0
	maximum = 0
Injected packet rate average = 0.0106875
	minimum = 0.004 (at node 12)
	maximum = 0.016 (at node 14)
Accepted packet rate average = 0.0109375
	minimum = 0.005 (at node 3)
	maximum = 0.017 (at node 11)
Injected flit rate average = 0.0106875
	minimum = 0.004 (at node 12)
	maximum = 0.016 (at node 14)
Accepted flit rate average= 0.0109375
	minimum = 0.005 (at node 3)
	maximum = 0.017 (at node 11)
Injected packet length average = 1
Accepted packet length average = 1
Total in-flight flits = 2 (2 measured)
latency change    = 0.0396312
throughput change = 0.165714
Class 0:
Packet latency average = 21.2632
	minimum = 7
	maximum = 55
Network latency average = 21.2632
	minimum = 7
	maximum = 55
Slowest packet = 4693
Flit latency average = 21.3202
	minimum = 7
	maximum = 55
Slowest flit = 4693
Fragmentation average = 0
	minimum = 0
	maximum = 0
Injected packet rate average = 0.0105417
	minimum = 0.00533333 (at node 5)
	maximum = 0.0153333 (at node 4)
Accepted packet rate average = 0.0105417
	minimum = 0.00533333 (at node 5)
	maximum = 0.0146667 (at node 1)
Injected flit rate average = 0.0105417
	minimum = 0.00533333 (at node 5)
	maximum = 0.0153333 (at node 4)
Accepted flit rate average= 0.0105417
	minimum = 0.00533333 (at node 5)
	maximum = 0.0146667 (at node 1)
Injected packet length average = 1
Accepted packet length average = 1
Total in-flight flits = 6 (6 measured)
latency change    = 0.0557883
throughput change = 0.0375494
Class 0:
Packet latency average = 21.1707
	minimum = 7
	maximum = 55
Network latency average = 21.1707
	minimum = 7
	maximum = 55
Slowest packet = 4693
Flit latency average = 21.2147
	minimum = 7
	maximum = 55
Slowest flit = 4693
Fragmentation average = 0
	minimum = 0
	maximum = 0
Injected packet rate average = 0.0106875
	minimum = 0.007 (at node 13)
	maximum = 0.015 (at node 4)
Accepted packet rate average = 0.010625
	minimum = 0.0065 (at node 7)
	maximum = 0.015 (at node 1)
Injected flit rate average = 0.0106875
	minimum = 0.007 (at node 13)
	maximum = 0.015 (at node 4)
Accepted flit rate average= 0.010625
	minimum = 0.0065 (at node 7)
	maximum = 0.015 (at node 1)
Injected packet length average = 1
Accepted packet length average = 1
Total in-flight flits = 8 (8 measured)
latency change    = 0.00436922
throughput change = 0.00784314
Class 0:
Packet latency average = 21.2108
	minimum = 7
	maximum = 55
Network latency average = 21.2108
	minimum = 7
	maximum = 55
Slowest packet = 4693
Flit latency average = 21.2464
	minimum = 7
	maximum = 55
Slowest flit = 4693
Fragmentation average = 0
	minimum = 0
	maximum = 0
Injected packet rate average = 0.010325
	minimum = 0.0072 (at node 5)
	maximum = 0.014 (at node 14)
Accepted packet rate average = 0.01035
	minimum = 0.0072 (at node 5)
	maximum = 0.0136 (at node 11)
Injected flit rate average = 0.010325
	minimum = 0.0072 (at node 5)
	maximum = 0.014 (at node 14)
Accepted flit rate average= 0.01035
	minimum = 0.0072 (at node 5)
	maximum = 0.0136 (at node 11)
Injected packet length average = 1
Accepted packet length average = 1
Total in-flight flits = 5 (5 measured)
latency change    = 0.00189176
throughput change = 0.02657
Class 0:
Packet latency average = 21.131
	minimum = 7
	maximum = 55
Network latency average = 21.131
	minimum = 7
	maximum = 55
Slowest packet = 4693
Flit latency average = 21.1614
	minimum = 7
	maximum = 55
Slowest flit = 4693
Fragmentation average = 0
	minimum = 0
	maximum = 0
Injected packet rate average = 0.0104167
	minimum = 0.007 (at node 13)
	maximum = 0.0136667 (at node 14)
Accepted packet rate average = 0.0104583
	minimum = 0.007 (at node 7)
	maximum = 0.0136667 (at node 11)
Injected flit rate average = 0.0104167
	minimum = 0.007 (at node 13)
	maximum = 0.0136667 (at node 14)
Accepted flit rate average= 0.0104583
	minimum = 0.007 (at node 7)
	maximum = 0.0136667 (at node 11)
Injected packet length average = 1
Accepted packet length average = 1
Total in-flight flits = 4 (4 measured)
latency change    = 0.0037734
throughput change = 0.0103586
Draining all recorded packets ...
Draining remaining packets ...
Time taken is 4537 cycles
Class 0:
Packet latency average = 17.6066
	minimum = 7
	maximum = 47
Network latency average = 17.6066
	minimum = 7
	maximum = 47
Slowest packet = 5089
Flit latency average = 17.6066
	minimum = 7
	maximum = 47
Slowest flit = 5089
Fragmentation average = 0
	minimum = 0
	maximum = 0
Injected packet rate average = 0.008125
	minimum = 0 (at node 7)
	maximum = 0.016 (at node 9)
Accepted packet rate average = 0.007625
	minimum = 0 (at node 13)
	maximum = 0.016 (at node 6)
Injected flit rate average = 0.008125
	minimum = 0 (at node 7)
	maximum = 0.016 (at node 9)
Accepted flit rate average= 0.007625
	minimum = 0 (at node 13)
	maximum = 0.016 (at node 6)
Injected packet length average = 1
Accepted packet length average = 1
Total in-flight flits = 4 (0 measured)
latency change    = 1
throughput change = 1
Class 0:
Packet latency average = 21.0872
	minimum = 7
	maximum = 55
Network latency average = 21.0872
	minimum = 7
	maximum = 55
Slowest packet = 5175
Flit latency average = 21.0872
	minimum = 7
	maximum = 55
Slowest flit = 5175
Fragmentation average = 0
	minimum = 0
	maximum = 0
Injected packet rate average = 0.009625
	minimum = 0.003 (at node 0)
	maximum = 0.017 (at node 9)
Accepted packet rate average = 0.0093125
	minimum = 0.003 (at node 0)
	maximum = 0.017 (at node 6)
Injected flit rate average = 0.009625
	minimum = 0.003 (at node 0)
	maximum = 0.017 (at node 9)
Accepted flit rate average= 0.0093125
	minimum = 0.003 (at node 0)
	maximum = 0.017 (at node 6)
Injected packet length average = 1
Accepted packet length average = 1
Total in-flight flits = 5 (0 measured)
latency change    = 0.165061
throughput change = 0.181208
Class 0:
Packet latency average = 22.011
	minimum = 7
	maximum = 49
Network latency average = 22.011
	minimum = 7
	maximum = 49
Slowest packet = 5249
Flit latency average = 22.011
	minimum = 7
	maximum = 49
Slowest flit = 5249
Fragmentation average = 0
	minimum = 0
	maximum = 0
Injected packet rate average = 0.010875
	minimum = 0.004 (at node 0)
	maximum = 0.02 (at node 15)
Accepted packet rate average = 0.011375
	minimum = 0.004 (at node 0)
	maximum = 0.02 (at node 15)
Injected flit rate average = 0.010875
	minimum = 0.004 (at node 0)
	maximum = 0.02 (at node 15)
Accepted flit rate average= 0.011375
	minimum = 0.004 (at node 0)
	maximum = 0.02 (at node 15)
Injected packet length average = 1
Accepted packet length average = 1
Total in-flight flits = 1 (0 measured)
latency change    = 0.0419673
throughput change = 0.181319
Warmed up ...Time used is 1500 cycles
Class 0:
Packet latency average = 21.9487
	minimum = 7
	maximum = 47
Network latency average = 21.9487
	minimum = 7
	maximum = 47
Slowest packet = 5290
Flit latency average = 21.8861
	minimum = 7
	maximum = 47
Slowest flit = 5290
Fragmentation average = 0
	minimum = 0
	maximum = 0
Injected packet rate average = 0.010125
	minimum = 0.002 (at node 0)
	maximum = 0.018 (at node 1)
Accepted packet rate average = 0.009875
	minimum = 0.002 (at node 0)
	maximum = 0.018 (at node 4)
Injected flit rate average = 0.010125
	minimum = 0.002 (at node 0)
	maximum = 0.018 (at node 1)
Accepted flit rate average= 0.009875
	minimum = 0.002 (at node 0)
	maximum = 0.018 (at node 4)
Injected packet length average = 1
Accepted packet length average = 1
Total in-flight flits = 3 (3 measured)
latency change    = 0.00283712
throughput change = 0.151899
Class 0:
Packet latency average = 21.0811
	minimum = 7
	maximum = 53
Network latency average = 21.0811
	minimum = 7
	maximum = 53
Slowest packet = 5402
Flit latency average = 21.0537
	minimum = 7
	maximum = 53
Slowest flit = 5402
Fragmentation average = 0
	minimum = 0
	maximum = 0
Injected packet rate average = 0.0093125
	minimum = 0.005 (at node 9)
	maximum = 0.016 (at node 11)
Accepted packet rate average = 0.0093125
	minimum = 0.005 (at node 6)
	maximum = 0.016 (at node 14)
Injected flit rate average = 0.0093125
	minimum = 0.005 (at node 9)
	maximum = 0.016 (at node 11)
Accepted flit rate average= 0.0093125
	minimum = 0.005 (at node 6)
	maximum = 0.016 (at node 14)
Injected packet length average = 1
Accepted packet length average = 1
Total in-flight flits = 1 (1 measured)
latency change    = 0.0411571
throughput change = 0.0604027
Class 0:
Packet latency average = 21.4
	minimum = 7
	maximum = 53
Network latency average = 21.4
	minimum = 7
	maximum = 53
Slowest packet = 5402
Flit latency average = 21.381
	minimum = 7
	maximum = 53
Slowest flit = 5402
Fragmentation average = 0
	minimum = 0
	maximum = 0
Injected packet rate average = 0.009625
	minimum = 0.00466667 (at node 14)
	maximum = 0.018 (at node 11)
Accepted packet rate average = 0.009625
	minimum = 0.00466667 (at node 11)
	maximum = 0.018 (at node 14)
Injected flit rate average = 0.009625
	minimum = 0.00466667 (at node 14)
	maximum = 0.018 (at node 11)
Accepted flit rate average= 0.009625
	minimum = 0.00466667 (at node 11)
	maximum = 0.018 (at node 14)
Injected packet length average = 1
Accepted packet length average = 1
Total in-flight flits = 1 (1 measured)
latency change    = 0.0149028
throughput change = 0.0324675
Class 0:
Packet latency average = 21.3179
	minimum = 7
	maximum = 53
Network latency average = 21.3179
	minimum = 7
	maximum = 53
Slowest packet = 5402
Flit latency average = 21.3036
	minimum = 7
	maximum = 53
Slowest flit = 5402
Fragmentation average = 0
	minimum = 0
	maximum = 0
Injected packet rate average = 0.0095
	minimum = 0.0065 (at node 14)
	maximum = 0.0165 (at node 11)
Accepted packet rate average = 0.00946875
	minimum = 0.0065 (at node 11)
	maximum = 0.0165 (at node 14)
Injected flit rate average = 0.0095
	minimum = 0.0065 (at node 14)
	maximum = 0.0165 (at node 11)
Accepted flit rate average= 0.00946875
	minimum = 0.0065 (at node 11)
	maximum = 0.0165 (at node 14)
Injected packet length average = 1
Accepted packet length average = 1
Total in-flight flits = 2 (2 measured)
latency change    = 0.00385213
throughput change = 0.0165017
Class 0:
Packet latency average = 20.9896
	minimum = 7
	maximum = 53
Network latency average = 20.9896
	minimum = 7
	maximum = 53
Slowest packet = 5402
Flit latency average = 20.9792
	minimum = 7
	maximum = 53
Slowest flit = 5402
Fragmentation average = 0
	minimum = 0
	maximum = 0
Injected packet rate average = 0.009625
	minimum = 0.0068 (at node 3)
	maximum = 0.0156 (at node 11)
Accepted packet rate average = 0.0096
	minimum = 0.0068 (at node 3)
	maximum = 0.0156 (at node 14)
Injected flit rate average = 0.009625
	minimum = 0.0068 (at node 3)
	maximum = 0.0156 (at node 11)
Accepted flit rate average= 0.0096
	minimum = 0.0068 (at node 3)
	maximum = 0.0156 (at node 14)
Injected packet length average = 1
Accepted packet length average = 1
Total in-flight flits = 2 (2 measured)
latency change    = 0.0156423
throughput change = 0.0136719
Draining all recorded packets ...
Draining remaining packets ...
Time taken is 4014 cycles
Class 0:
Packet latency average = 21.4324
	minimum = 7
	maximum = 58
Network latency average = 21.4324
	minimum = 7
	maximum = 58
Slowest packet = 5689
Flit latency average = 21.4324
	minimum = 7
	maximum = 58
Slowest flit = 5689
Fragmentation average = 0
	minimum = 0
	maximum = 0
Injected packet rate average = 0.009875
	minimum = 0.002 (at node 0)
	maximum = 0.016 (at node 1)
Accepted packet rate average = 0.00925
	minimum = 0.002 (at node 0)
	maximum = 0.016 (at node 4)
Injected flit rate average = 0.009875
	minimum = 0.002 (at node 0)
	maximum = 0.016 (at node 1)
Accepted flit rate average= 0.00925
	minimum = 0.002 (at node 0)
	maximum = 0.016 (at node 4)
Injected packet length average = 1
Accepted packet length average = 1
Total in-flight flits = 5 (0 measured)
latency change    = 1
throughput change = 1
Class 0:
Packet latency average = 21.7467
	minimum = 7
	maximum = 58
Network latency average = 21.7467
	minimum = 7
	maximum = 58
Slowest packet = 5689
Flit latency average = 21.7467
	minimum = 7
	maximum = 58
Slowest flit = 5689
Fragmentation average = 0
	minimum = 0
	maximum = 0
Injected packet rate average = 0.0095625
	minimum = 0.006 (at node 0)
	maximum = 0.014 (at node 3)
Accepted packet rate average = 0.009375
	minimum = 0.006 (at node 0)
	maximum = 0.014 (at node 10)
Injected flit rate average = 0.0095625
	minimum = 0.006 (at node 0)
	maximum = 0.014 (at node 3)
Accepted flit rate average= 0.009375
	minimum = 0.006 (at node 0)
	maximum = 0.014 (at node 10)
Injected packet length average = 1
Accepted packet length average = 1
Total in-flight flits = 3 (0 measured)
latency change    = 0.0144498
throughput change = 0.0133333
Class 0:
Packet latency average = 19.9
	minimum = 7
	maximum = 47
Network latency average = 19.9
	minimum = 7
	maximum = 47
Slowest packet = 5819
Flit latency average = 19.9
	minimum = 7
	maximum = 47
Slowest flit = 5819
Fragmentation average = 0
	minimum = 0
	maximum = 0
Injected packet rate average = 0.00875
	minimum = 0 (at node 6)
	maximum = 0.016 (at node 15)
Accepted packet rate average = 0.00875
	minimum = 0 (at node 9)
	maximum = 0.016 (at node 15)
Injected flit rate average = 0.00875
	minimum = 0 (at node 6)
	maximum = 0.016 (at node 15)
Accepted flit rate average= 0.00875
	minimum = 0 (at node 9)
	maximum = 0.016 (at node 15)
Injected packet length average = 1
Accepted packet length average = 1
Total in-flight flits = 3 (0 measured)
latency change    = 0.0927973
throughput change = 0.0714286
Warmed up ...Time used is 1500 cycles
Class 0:
Packet latency average = 20.05
	minimum = 7
	maximum = 53
Network latency average = 20.05
	minimum = 7
	maximum = 53
Slowest packet = 5916
Flit latency average = 20.6024
	minimum = 7
	maximum = 53
Slowest flit = 5916
Fragmentation average = 0
	minimum = 0
	maximum = 0
Injected packet rate average = 0.0105
	minimum = 0.002 (at node 15)
	maximum = 0.02 (at node 7)
Accepted packet rate average = 0.010375
	minimum = 0.002 (at node 3)
	maximum = 0.02 (at node 13)
Injected flit rate average = 0.0105
	minimum = 0.002 (at node 15)
	maximum = 0.02 (at node 7)
Accepted flit rate average= 0.010375
	minimum = 0.002 (at node 3)
	maximum = 0.02 (at node 13)
Injected packet length average = 1
Accepted packet length average = 1
Total in-flight flits = 4 (4 measured)
latency change    = 0.0074813
throughput change = 0.156627
Class 0:
Packet latency average = 20.05
	minimum = 7
	maximum = 53
Network latency average = 20.05
	minimum = 7
	maximum = 53
Slowest packet = 5916
Flit latency average = 20.3313
	minimum = 7
	maximum = 53
Slowest flit = 5916
Fragmentation average = 0
	minimum = 0
	maximum = 0
Injected packet rate average = 0.010125
	minimum = 0.005 (at node 11)
	maximum = 0.017 (at node 7)
Accepted packet rate average = 0.0101875
	minimum = 0.005 (at node 3)
	maximum = 0.018 (at node 13)
Injected flit rate average = 0.010125
	minimum = 0.005 (at node 11)
	maximum = 0.017 (at node 7)
Accepted flit rate average= 0.0101875
	minimum = 0.005 (at node 3)
	maximum = 0.018 (at node 13)
Injected packet length average = 1
Accepted packet length average = 1
Total in-flight flits = 2 (2 measured)
latency change    = 0
throughput change = 0.0184049
Class 0:
Packet latency average = 19.9786
	minimum = 7
	maximum = 53
Network latency average = 19.9786
	minimum = 7
	maximum = 53
Slowest packet = 5916
Flit latency average = 20.173
	minimum = 7
	maximum = 53
Slowest flit = 5916
Fragmentation average = 0
	minimum = 0
	maximum = 0
Injected packet rate average = 0.00979167
	minimum = 0.00666667 (at node 11)
	maximum = 0.0153333 (at node 7)
Accepted packet rate average = 0.009875
	minimum = 0.00666667 (at node 3)
	maximum = 0.016 (at node 13)
Injected flit rate average = 0.00979167
	minimum = 0.00666667 (at node 11)
	maximum = 0.0153333 (at node 7)
Accepted flit rate average= 0.009875
	minimum = 0.00666667 (at node 3)
	maximum = 0.016 (at node 13)
Injected packet length average = 1
Accepted packet length average = 1
Total in-flight flits = 1 (1 measured)
latency change    = 0.00357219
throughput change = 0.0316456
Class 0:
Packet latency average = 20.2739
	minimum = 7
	maximum = 54
Network latency average = 20.2739
	minimum = 7
	maximum = 54
Slowest packet = 6181
Flit latency average = 20.4216
	minimum = 7
	maximum = 54
Slowest flit = 6181
Fragmentation average = 0
	minimum = 0
	maximum = 0
Injected packet rate average = 0.0095
	minimum = 0.006 (at node 12)
	maximum = 0.013 (at node 0)
Accepted packet rate average = 0.0095625
	minimum = 0.006 (at node 3)
	maximum = 0.013 (at node 0)
Injected flit rate average = 0.0095
	minimum = 0.006 (at node 12)
	maximum = 0.013 (at node 0)
Accepted flit rate average= 0.0095625
	minimum = 0.006 (at node 3)
	maximum = 0.013 (at node 0)
Injected packet length average = 1
Accepted packet length average = 1
Total in-flight flits = 1 (1 measured)
latency change    = 0.0145653
throughput change = 0.0326797
Draining all recorded packets ...
Draining remaining packets ...
Time taken is 3576 cycles
Class 0:
Packet latency average = 22.3846
	minimum = 7
	maximum = 57
Network latency average = 22.3846
	minimum = 7
	maximum = 57
Slowest packet = 6220
Flit latency average = 22.3846
	minimum = 7
	maximum = 57
Slowest flit = 6220
Fragmentation average = 0
	minimum = 0
	maximum = 0
Injected packet rate average = 0.00875
	minimum = 0 (at node 15)
	maximum = 0.014 (at node 0)
Accepted packet rate average = 0.008125
	minimum = 0 (at node 15)
	maximum = 0.014 (at node 0)
Injected flit rate average = 0.00875
	minimum = 0 (at node 15)
	maximum = 0.014 (at node 0)
Accepted flit rate average= 0.008125
	minimum = 0 (at node 15)
	maximum = 0.014 (at node 0)
Injected packet length average = 1
Accepted packet length average = 1
Total in-flight flits = 5 (0 measured)
latency change    = 1
throughput change = 1
Class 0:
Packet latency average = 21.1824
	minimum = 7
	maximum = 57
Network latency average = 21.1824
	minimum = 7
	maximum = 57
Slowest packet = 6220
Flit latency average = 21.1824
	minimum = 7
	maximum = 57
Slowest flit = 6220
Fragmentation average = 0
	minimum = 0
	maximum = 0
Injected packet rate average = 0.0103125
	minimum = 0.004 (at node 15)
	maximum = 0.017 (at node 0)
Accepted packet rate average = 0.0099375
	minimum = 0.004 (at node 15)
	maximum = 0.017 (at node 0)
Injected flit rate average = 0.0103125
	minimum = 0.004 (at node 15)
	maximum = 0.017 (at node 0)
Accepted flit rate average= 0.0099375
	minimum = 0.004 (at node 15)
	maximum = 0.017 (at node 0)
Injected packet length average = 1
Accepted packet length average = 1
Total in-flight flits = 6 (0 measured)
latency change    = 0.0567559
throughput change = 0.18239
Class 0:
Packet latency average = 21.5616
	minimum = 7
	maximum = 49
Network latency average = 21.5616
	minimum = 7
	maximum = 49
Slowest packet = 6356
Flit latency average = 21.5616
	minimum = 7
	maximum = 49
Slowest flit = 6356
Fragmentation average = 0
	minimum = 0
	maximum = 0
Injected packet rate average = 0.00875
	minimum = 0 (at node 13)
	maximum = 0.016 (at node 10)
Accepted packet rate average = 0.009125
	minimum = 0 (at node 7)
	maximum = 0.016 (at node 3)
Injected flit rate average = 0.00875
	minimum = 0 (at node 13)
	maximum = 0.016 (at node 10)
Accepted flit rate average= 0.009125
	minimum = 0 (at node 7)
	maximum = 0.016 (at node 3)
Injected packet length average = 1
Accepted packet length average = 1
Total in-flight flits = 3 (0 measured)
latency change    = 0.0175893
throughput change = 0.0890411
Warmed up ...Time used is 1500 cycles
Class 0:
Packet latency average = 21.9701
	minimum = 7
	maximum = 56
Network latency average = 21.9701
	minimum = 7
	maximum = 56
Slowest packet = 6469
Flit latency average = 22.0429
	minimum = 7
	maximum = 56
Slowest flit = 6469
Fragmentation average = 0
	minimum = 0
	maximum = 0
Injected packet rate average = 0.00875
	minimum = 0.002 (at node 2)
	maximum = 0.02 (at node 13)
Accepted packet rate average = 0.00875
	minimum = 0.002 (at node 8)
	maximum = 0.02 (at node 7)
Injected flit rate average = 0.00875
	minimum = 0.002 (at node 2)
	maximum = 0.02 (at node 13)
Accepted flit rate average= 0.00875
	minimum = 0.002 (at node 8)
	maximum = 0.02 (at node 7)
Injected packet length average = 1
Accepted packet length average = 1
Total in-flight flits = 3 (3 measured)
latency change    = 0.0185937
throughput change = 0.0428571
Class 0:
Packet latency average = 21.4345
	minimum = 7
	maximum = 56
Network latency average = 21.4345
	minimum = 7
	maximum = 56
Slowest packet = 6469
Flit latency average = 21.4797
	minimum = 7
	maximum = 56
Slowest flit = 6469
Fragmentation average = 0
	minimum = 0
	maximum = 0
Injected packet rate average = 0.0093125
	minimum = 0.007 (at node 0)
	maximum = 0.012 (at node 3)
Accepted packet rate average = 0.00925
	minimum = 0.006 (at node 8)
	maximum = 0.012 (at node 2)
Injected flit rate average = 0.0093125
	minimum = 0.007 (at node 0)
	maximum = 0.012 (at node 3)
Accepted flit rate average= 0.00925
	minimum = 0.006 (at node 8)
	maximum = 0.012 (at node 2)
Injected packet length average = 1
Accepted packet length average = 1
Total in-flight flits = 4 (4 measured)
latency change    = 0.0249909
throughput change = 0.0540541
Class 0:
Packet latency average = 20.7685
	minimum = 7
	maximum = 56
Network latency average = 20.7685
	minimum = 7
	maximum = 56
Slowest packet = 6469
Flit latency average = 20.8082
	minimum = 7
	maximum = 56
Slowest flit = 6469
Fragmentation average = 0
	minimum = 0
	maximum = 0
Injected packet rate average = 0.00925
	minimum = 0.00666667 (at node 2)
	maximum = 0.0126667 (at node 8)
Accepted packet rate average = 0.009125
	minimum = 0.00666667 (at node 8)
	maximum = 0.0113333 (at node 1)
Injected flit rate average = 0.00925
	minimum = 0.00666667 (at node 2)
	maximum = 0.0126667 (at node 8)
Accepted flit rate average= 0.009125
	minimum = 0.00666667 (at node 8)
	maximum = 0.0113333 (at node 1)
Injected packet length average = 1
Accepted packet length average = 1
Total in-flight flits = 6 (6 measured)
latency change    = 0.032066
throughput change = 0.0136986
Class 0:
Packet latency average = 20.9307
	minimum = 7
	maximum = 56
Network latency average = 20.9307
	minimum = 7
	maximum = 56
Slowest packet = 6469
Flit latency average = 20.9575
	minimum = 7
	maximum = 56
Slowest flit = 6469
Fragmentation average = 0
	minimum = 0
	maximum = 0
Injected packet rate average = 0.00965625
	minimum = 0.007 (at node 6)
	maximum = 0.012 (at node 3)
Accepted packet rate average = 0.0095625
	minimum = 0.007 (at node 9)
	maximum = 0.0115 (at node 2)
Injected flit rate average = 0.00965625
	minimum = 0.007 (at node 6)
	maximum = 0.012 (at node 3)
Accepted flit rate average= 0.0095625
	minimum = 0.007 (at node 9)
	maximum = 0.0115 (at node 2)
Injected packet length average = 1
Accepted packet length average = 1
Total in-flight flits = 6 (6 measured)
latency change    = 0.00774817
throughput change = 0.0457516
Class 0:
Packet latency average = 20.7599
	minimum = 7
	maximum = 56
Network latency average = 20.7599
	minimum = 7
	maximum = 56
Slowest packet = 6469
Flit latency average = 20.7827
	minimum = 7
	maximum = 56
Slowest flit = 6469
Fragmentation average = 0
	minimum = 0
	maximum = 0
Injected packet rate average = 0.009525
	minimum = 0.0076 (at node 12)
	maximum = 0.012 (at node 8)
Accepted packet rate average = 0.00955
	minimum = 0.0076 (at node 3)
	maximum = 0.012 (at node 2)
Injected flit rate average = 0.009525
	minimum = 0.0076 (at node 12)
	maximum = 0.012 (at node 8)
Accepted flit rate average= 0.00955
	minimum = 0.0076 (at node 3)
	maximum = 0.012 (at node 2)
Injected packet length average = 1
Accepted packet length average = 1
Total in-flight flits = 2 (2 measured)
latency change    = 0.00822734
throughput change = 0.0013089
Draining all recorded packets ...
Draining remaining packets ...
Time taken is 4068 cycles
Class 0:
Packet latency average = 18.2206
	minimum = 7
	maximum = 47
Network latency average = 18.2206
	minimum = 7
	maximum = 47
Slowest packet = 6859
Flit latency average = 18.2206
	minimum = 7
	maximum = 47
Slowest flit = 6859
Fragmentation average = 0
	minimum = 0
	maximum = 0
Injected packet rate average = 0.009
	minimum = 0.002 (at node 7)
	maximum = 0.02 (at node 5)
Accepted packet rate average = 0.0085
	minimum = 0.002 (at node 13)
	maximum = 0.02 (at node 5)
Injected flit rate average = 0.009
	minimum = 0.002 (at node 7)
	maximum = 0.02 (at node 5)
Accepted flit rate average= 0.0085
	minimum = 0.002 (at node 13)
	maximum = 0.02 (at node 5)
Injected packet length average = 1
Accepted packet length average = 1
Total in-flight flits = 4 (0 measured)
latency change    = 1
throughput change = 1
Class 0:
Packet latency average = 19.5535
	minimum = 7
	maximum = 47
Network latency average = 19.5535
	minimum = 7
	maximum = 47
Slowest packet = 6859
Flit latency average = 19.5535
	minimum = 7
	maximum = 47
Slowest flit = 6859
Fragmentation average = 0
	minimum = 0
	maximum = 0
Injected packet rate average = 0.01
	minimum = 0.005 (at node 9)
	maximum = 0.017 (at node 4)
Accepted packet rate average = 0.0099375
	minimum = 0.005 (at node 6)
	maximum = 0.017 (at node 1)
Injected flit rate average = 0.01
	minimum = 0.005 (at node 9)
	maximum = 0.017 (at node 4)
Accepted flit rate average= 0.0099375
	minimum = 0.005 (at node 6)
	maximum = 0.017 (at node 1)
Injected packet length average = 1
Accepted packet length average = 1
Total in-flight flits = 1 (0 measured)
latency change    = 0.0681655
throughput change = 0.144654
Class 0:
Packet latency average = 23.2532
	minimum = 7
	maximum = 60
Network latency average = 23.2532
	minimum = 7
	maximum = 60
Slowest packet = 7025
Flit latency average = 23.2532
	minimum = 7
	maximum = 60
Slowest flit = 7025
Fragmentation average = 0
	minimum = 0
	maximum = 0
Injected packet rate average = 0.01
	minimum = 0.004 (at node 15)
	maximum = 0.014 (at node 4)
Accepted packet rate average = 0.009875
	minimum = 0.004 (at node 15)
	maximum = 0.014 (at node 1)
Injected flit rate average = 0.01
	minimum = 0.004 (at node 15)
	maximum = 0.014 (at node 4)
Accepted flit rate average= 0.009875
	minimum = 0.004 (at node 15)
	maximum = 0.014 (at node 1)
Injected packet length average = 1
Accepted packet length average = 1
Total in-flight flits = 2 (0 measured)
latency change    = 0.159105
throughput change = 0.00632911
Warmed up ...Time used is 1500 cycles
Class 0:
Packet latency average = 20.7222
	minimum = 7
	maximum = 48
Network latency average = 20.7222
	minimum = 7
	maximum = 48
Slowest packet = 7084
Flit latency average = 20.4865
	minimum = 7
	maximum = 48
Slowest flit = 7084
Fragmentation average = 0
	minimum = 0
	maximum = 0
Injected packet rate average = 0.009125
	minimum = 0.004 (at node 2)
	maximum = 0.016 (at node 8)
Accepted packet rate average = 0.00925
	minimum = 0.004 (at node 8)
	maximum = 0.016 (at node 2)
Injected flit rate average = 0.009125
	minimum = 0.004 (at node 2)
	maximum = 0.016 (at node 8)
Accepted flit rate average= 0.00925
	minimum = 0.004 (at node 8)
	maximum = 0.016 (at node 2)
Injected packet length average = 1
Accepted packet length average = 1
Total in-flight flits = 1 (1 measured)
latency change    = 0.122137
throughput change = 0.0675676
Class 0:
Packet latency average = 20.0875
	minimum = 7
	maximum = 51
Network latency average = 20.0875
	minimum = 7
	maximum = 51
Slowest packet = 7154
Flit latency average = 19.9877
	minimum = 7
	maximum = 51
Slowest flit = 7154
Fragmentation average = 0
	minimum = 0
	maximum = 0
Injected packet rate average = 0.0100625
	minimum = 0.006 (at node 6)
	maximum = 0.016 (at node 15)
Accepted packet rate average = 0.010125
	minimum = 0.005 (at node 3)
	maximum = 0.016 (at node 15)
Injected flit rate average = 0.0100625
	minimum = 0.006 (at node 6)
	maximum = 0.016 (at node 15)
Accepted flit rate average= 0.010125
	minimum = 0.005 (at node 3)
	maximum = 0.016 (at node 15)
Injected packet length average = 1
Accepted packet length average = 1
Total in-flight flits = 1 (1 measured)
latency change    = 0.0315979
throughput change = 0.0864198
Class 0:
Packet latency average = 20.8814
	minimum = 7
	maximum = 54
Network latency average = 20.8814
	minimum = 7
	maximum = 54
Slowest packet = 7270
Flit latency average = 20.8067
	minimum = 7
	maximum = 54
Slowest flit = 7270
Fragmentation average = 0
	minimum = 0
	maximum = 0
Injected packet rate average = 0.00995833
	minimum = 0.006 (at node 12)
	maximum = 0.014 (at node 1)
Accepted packet rate average = 0.00991667
	minimum = 0.006 (at node 3)
	maximum = 0.014 (at node 4)
Injected flit rate average = 0.00995833
	minimum = 0.006 (at node 12)
	maximum = 0.014 (at node 1)
Accepted flit rate average= 0.00991667
	minimum = 0.006 (at node 3)
	maximum = 0.014 (at node 4)
Injected packet length average = 1
Accepted packet length average = 1
Total in-flight flits = 3 (3 measured)
latency change    = 0.0380175
throughput change = 0.0210084
Class 0:
Packet latency average = 21.1899
	minimum = 7
	maximum = 55
Network latency average = 21.1899
	minimum = 7
	maximum = 55
Slowest packet = 7367
Flit latency average = 21.1321
	minimum = 7
	maximum = 55
Slowest flit = 7367
Fragmentation average = 0
	minimum = 0
	maximum = 0
Injected packet rate average = 0.0099375
	minimum = 0.008 (at node 6)
	maximum = 0.0135 (at node 1)
Accepted packet rate average = 0.0099375
	minimum = 0.0085 (at node 3)
	maximum = 0.0135 (at node 4)
Injected flit rate average = 0.0099375
	minimum = 0.008 (at node 6)
	maximum = 0.0135 (at node 1)
Accepted flit rate average= 0.0099375
	minimum = 0.0085 (at node 3)
	maximum = 0.0135 (at node 4)
Injected packet length average = 1
Accepted packet length average = 1
Total in-flight flits = 2 (2 measured)
latency change    = 0.0145597
throughput change = 0.00209644
Class 0:
Packet latency average = 21.2882
	minimum = 7
	maximum = 55
Network latency average = 21.2882
	minimum = 7
	maximum = 55
Slowest packet = 7367
Flit latency average = 21.2426
	minimum = 7
	maximum = 55
Slowest flit = 7367
Fragmentation average = 0
	minimum = 0
	maximum = 0
Injected packet rate average = 0.0102
	minimum = 0.008 (at node 2)
	maximum = 0.0136 (at node 1)
Accepted packet rate average = 0.0102
	minimum = 0.008 (at node 8)
	maximum = 0.0136 (at node 4)
Injected flit rate average = 0.0102
	minimum = 0.008 (at node 2)
	maximum = 0.0136 (at node 1)
[...]
Network latency average = 21.2194
	minimum = 7
	maximum = 62
Slowest packet = 31738
Flit latency average = 21.25
	minimum = 7
	maximum = 62
Slowest flit = 31738
Fragmentation average = 0
	minimum = 0
	maximum = 0
Injected packet rate average = 0.00975
	minimum = 0.0055 (at node 10)
	maximum = 0.013 (at node 1)
Accepted packet rate average = 0.009875
	minimum = 0.006 (at node 6)
	maximum = 0.013 (at node 4)
Injected flit rate average = 0.00975
	minimum = 0.0055 (at node 10)
	maximum = 0.013 (at node 1)
Accepted flit rate average= 0.009875
	minimum = 0.006 (at node 6)
	maximum = 0.013 (at node 4)
Injected packet length average = 1
Accepted packet length average = 1
Total in-flight flits = 2 (2 measured)
latency change    = 0.0123157
throughput change = 0.00843882
Class 0:
Packet latency average = 21.6067
	minimum = 7
	maximum = 62
Network latency average = 21.6067
	minimum = 7
	maximum = 62
Slowest packet = 31738
Flit latency average = 21.6253
	minimum = 7
	maximum = 62
Slowest flit = 31738
Fragmentation average = 0
	minimum = 0
	maximum = 0
Injected packet rate average = 0.00985
	minimum = 0.006 (at node 9)
	maximum = 0.0124 (at node 1)
Accepted packet rate average = 0.009875
	minimum = 0.006 (at node 6)
	maximum = 0.0124 (at node 8)
Injected flit rate average = 0.00985
	minimum = 0.006 (at node 9)
	maximum = 0.0124 (at node 1)
Accepted flit rate average= 0.009875
	minimum = 0.006 (at node 6)
	maximum = 0.0124 (at node 8)
Injected packet length average = 1
Accepted packet length average = 1
Total in-flight flits = 5 (5 measured)
latency change    = 0.0179263
throughput change = 0
Class 0:
Packet latency average = 21.9461
	minimum = 7
	maximum = 62
Network latency average = 21.9461
	minimum = 7
	maximum = 62
Slowest packet = 31738
Flit latency average = 21.9574
	minimum = 7
	maximum = 62
Slowest flit = 31738
Fragmentation average = 0
	minimum = 0
	maximum = 0
Injected packet rate average = 0.00970833
	minimum = 0.006 (at node 9)
	maximum = 0.0126667 (at node 2)
Accepted packet rate average = 0.00979167
	minimum = 0.006 (at node 6)
	maximum = 0.0126667 (at node 8)
Injected flit rate average = 0.00970833
	minimum = 0.006 (at node 9)
	maximum = 0.0126667 (at node 2)
Accepted flit rate average= 0.00979167
	minimum = 0.006 (at node 6)
	maximum = 0.0126667 (at node 8)
Injected packet length average = 1
Accepted packet length average = 1
Total in-flight flits = 2 (2 measured)
latency change    = 0.0154668
throughput change = 0.00851064
Draining all recorded packets ...
Draining remaining packets ...
Time taken is 4560 cycles
Class 0:
Packet latency average = 21.9091
	minimum = 7
	maximum = 54
Network latency average = 21.9091
	minimum = 7
	maximum = 54
Slowest packet = 32061
Flit latency average = 21.9091
	minimum = 7
	maximum = 54
Slowest flit = 32061
Fragmentation average = 0
	minimum = 0
	maximum = 0
Injected packet rate average = 0.010125
	minimum = 0.002 (at node 14)
	maximum = 0.014 (at node 0)
Accepted packet rate average = 0.009625
	minimum = 0.002 (at node 11)
	maximum = 0.014 (at node 0)
Injected flit rate average = 0.010125
	minimum = 0.002 (at node 14)
	maximum = 0.014 (at node 0)
Accepted flit rate average= 0.009625
	minimum = 0.002 (at node 11)
	maximum = 0.014 (at node 0)
Injected packet length average = 1
Accepted packet length average = 1
Total in-flight flits = 4 (0 measured)
latency change    = 1
throughput change = 1
Class 0:
Packet latency average = 20.6564
	minimum = 7
	maximum = 54
Network latency average = 20.6564
	minimum = 7
	maximum = 54
Slowest packet = 32061
Flit latency average = 20.6564
	minimum = 7
	maximum = 54
Slowest flit = 32061
Fragmentation average = 0
	minimum = 0
	maximum = 0
Injected packet rate average = 0.0103125
	minimum = 0.003 (at node 5)
	maximum = 0.016 (at node 15)
Accepted packet rate average = 0.0101875
	minimum = 0.003 (at node 5)
	maximum = 0.016 (at node 15)
Injected flit rate average = 0.0103125
	minimum = 0.003 (at node 5)
	maximum = 0.016 (at node 15)
Accepted flit rate average= 0.0101875
	minimum = 0.003 (at node 5)
	maximum = 0.016 (at node 15)
Injected packet length average = 1
Accepted packet length average = 1
Total in-flight flits = 2 (0 measured)
latency change    = 0.0606421
throughput change = 0.0552147
Class 0:
Packet latency average = 22.3288
	minimum = 7
	maximum = 48
Network latency average = 22.3288
	minimum = 7
	maximum = 48
Slowest packet = 32188
Flit latency average = 22.3288
	minimum = 7
	maximum = 48
Slowest flit = 32188
Fragmentation average = 0
	minimum = 0
	maximum = 0
Injected packet rate average = 0.009
	minimum = 0.004 (at node 4)
	maximum = 0.018 (at node 14)
Accepted packet rate average = 0.009125
	minimum = 0.004 (at node 1)
	maximum = 0.018 (at node 11)
Injected flit rate average = 0.009
	minimum = 0.004 (at node 4)
	maximum = 0.018 (at node 14)
Accepted flit rate average= 0.009125
	minimum = 0.004 (at node 1)
	maximum = 0.018 (at node 11)
Injected packet length average = 1
Accepted packet length average = 1
Total in-flight flits = 1 (0 measured)
latency change    = 0.0748956
throughput change = 0.116438
Warmed up ...Time used is 1500 cycles
Class 0:
Packet latency average = 21.2674
	minimum = 7
	maximum = 53
Network latency average = 21.2674
	minimum = 7
	maximum = 53
Slowest packet = 32339
Flit latency average = 21.3333
	minimum = 7
	maximum = 53
Slowest flit = 32339
Fragmentation average = 0
	minimum = 0
	maximum = 0
Injected packet rate average = 0.01075
	minimum = 0 (at node 12)
	maximum = 0.02 (at node 2)
Accepted packet rate average = 0.010875
	minimum = 0 (at node 3)
	maximum = 0.02 (at node 8)
Injected flit rate average = 0.01075
	minimum = 0 (at node 12)
	maximum = 0.02 (at node 2)
Accepted flit rate average= 0.010875
	minimum = 0 (at node 3)
	maximum = 0.02 (at node 8)
Injected packet length average = 1
Accepted packet length average = 1
Total in-flight flits = 0 (0 measured)
latency change    = 0.0499038
throughput change = 0.16092
Class 0:
Packet latency average = 21.7066
	minimum = 7
	maximum = 55
Network latency average = 21.7066
	minimum = 7
	maximum = 55
Slowest packet = 32353
Flit latency average = 21.7381
	minimum = 7
	maximum = 55
Slowest flit = 32353
Fragmentation average = 0
	minimum = 0
	maximum = 0
Injected packet rate average = 0.0105
	minimum = 0.004 (at node 12)
	maximum = 0.019 (at node 2)
Accepted packet rate average = 0.0105
	minimum = 0.003 (at node 3)
	maximum = 0.019 (at node 8)
Injected flit rate average = 0.0105
	minimum = 0.004 (at node 12)
	maximum = 0.019 (at node 2)
Accepted flit rate average= 0.0105
	minimum = 0.003 (at node 3)
	maximum = 0.019 (at node 8)
Injected packet length average = 1
Accepted packet length average = 1
Total in-flight flits = 1 (1 measured)
latency change    = 0.020231
throughput change = 0.0357143
Class 0:
Packet latency average = 21.7489
	minimum = 7
	maximum = 55
Network latency average = 21.7489
	minimum = 7
	maximum = 55
Slowest packet = 32353
Flit latency average = 21.7712
	minimum = 7
	maximum = 55
Slowest flit = 32353
Fragmentation average = 0
	minimum = 0
	maximum = 0
Injected packet rate average = 0.0100833
	minimum = 0.00666667 (at node 10)
	maximum = 0.0153333 (at node 2)
Accepted packet rate average = 0.00983333
	minimum = 0.006 (at node 3)
	maximum = 0.0146667 (at node 8)
Injected flit rate average = 0.0100833
	minimum = 0.00666667 (at node 10)
	maximum = 0.0153333 (at node 2)
Accepted flit rate average= 0.00983333
	minimum = 0.006 (at node 3)
	maximum = 0.0146667 (at node 8)
Injected packet length average = 1
Accepted packet length average = 1
Total in-flight flits = 7 (7 measured)
latency change    = 0.00194719
throughput change = 0.0677966
Class 0:
Packet latency average = 21.9254
	minimum = 7
	maximum = 56
Network latency average = 21.9254
	minimum = 7
	maximum = 56
Slowest packet = 32522
Flit latency average = 21.9405
	minimum = 7
	maximum = 56
Slowest flit = 32522
Fragmentation average = 0
	minimum = 0
	maximum = 0
Injected packet rate average = 0.0105938
	minimum = 0.0065 (at node 12)
	maximum = 0.014 (at node 2)
Accepted packet rate average = 0.0105
	minimum = 0.0065 (at node 3)
	maximum = 0.014 (at node 7)
Injected flit rate average = 0.0105938
	minimum = 0.0065 (at node 12)
	maximum = 0.014 (at node 2)
Accepted flit rate average= 0.0105
	minimum = 0.0065 (at node 3)
	maximum = 0.014 (at node 7)
Injected packet length average = 1
Accepted packet length average = 1
Total in-flight flits = 4 (4 measured)
latency change    = 0.00804716
throughput change = 0.0634921
Class 0:
Packet latency average = 21.655
	minimum = 7
	maximum = 56
Network latency average = 21.655
	minimum = 7
	maximum = 56
Slowest packet = 32522
Flit latency average = 21.6683
	minimum = 7
	maximum = 56
Slowest flit = 32522
Fragmentation average = 0
	minimum = 0
	maximum = 0
Injected packet rate average = 0.0101
	minimum = 0.0064 (at node 10)
	maximum = 0.0132 (at node 13)
Accepted packet rate average = 0.010025
	minimum = 0.0064 (at node 3)
	maximum = 0.0128 (at node 7)
Injected flit rate average = 0.0101
	minimum = 0.0064 (at node 10)
	maximum = 0.0132 (at node 13)
Accepted flit rate average= 0.010025
	minimum = 0.0064 (at node 3)
	maximum = 0.0128 (at node 7)
Injected packet length average = 1
Accepted packet length average = 1
Total in-flight flits = 4 (4 measured)
latency change    = 0.0124855
throughput change = 0.0473815
Class 0:
Packet latency average = 21.466
	minimum = 7
	maximum = 56
Network latency average = 21.466
	minimum = 7
	maximum = 56
Slowest packet = 32522
Flit latency average = 21.4774
	minimum = 7
	maximum = 56
Slowest flit = 32522
Fragmentation average = 0
	minimum = 0
	maximum = 0
Injected packet rate average = 0.0101875
	minimum = 0.006 (at node 12)
	maximum = 0.013 (at node 13)
Accepted packet rate average = 0.010125
	minimum = 0.006 (at node 3)
	maximum = 0.013 (at node 7)
Injected flit rate average = 0.0101875
	minimum = 0.006 (at node 12)
	maximum = 0.013 (at node 13)
Accepted flit rate average= 0.010125
	minimum = 0.006 (at node 3)
	maximum = 0.013 (at node 7)
Injected packet length average = 1
Accepted packet length average = 1
Total in-flight flits = 4 (4 measured)
latency change    = 0.00880559
throughput change = 0.00987654
Class 0:
Packet latency average = 21.3879
	minimum = 7
	maximum = 56
Network latency average = 21.3879
	minimum = 7
	maximum = 56
Slowest packet = 32522
Flit latency average = 21.3979
	minimum = 7
	maximum = 56
Slowest flit = 32522
Fragmentation average = 0
	minimum = 0
	maximum = 0
Injected packet rate average = 0.0100714
	minimum = 0.00628571 (at node 12)
	maximum = 0.014 (at node 13)
Accepted packet rate average = 0.0100536
	minimum = 0.00628571 (at node 3)
	maximum = 0.014 (at node 7)
Injected flit rate average = 0.0100714
	minimum = 0.00628571 (at node 12)
	maximum = 0.014 (at node 13)
Accepted flit rate average= 0.0100536
	minimum = 0.00628571 (at node 3)
	maximum = 0.014 (at node 7)
Injected packet length average = 1
Accepted packet length average = 1
Total in-flight flits = 2 (2 measured)
latency change    = 0.00365062
throughput change = 0.0071048
Draining all recorded packets ...
Draining remaining packets ...
Time taken is 5060 cycles
Class 0:
Packet latency average = 19.8191
	minimum = 7
	maximum = 57
Network latency average = 19.8191
	minimum = 7
	maximum = 57
Slowest packet = 32874
Flit latency average = 19.8191
	minimum = 7
	maximum = 57
Slowest flit = 32874
Fragmentation average = 0
	minimum = 0
	maximum = 0
Injected packet rate average = 0.012
	minimum = 0.004 (at node 9)
	maximum = 0.02 (at node 11)
Accepted packet rate average = 0.01175
	minimum = 0.004 (at node 6)
	maximum = 0.02 (at node 14)
Injected flit rate average = 0.012
	minimum = 0.004 (at node 9)
	maximum = 0.02 (at node 11)
Accepted flit rate average= 0.01175
	minimum = 0.004 (at node 6)
	maximum = 0.02 (at node 14)
Injected packet length average = 1
Accepted packet length average = 1
Total in-flight flits = 2 (0 measured)
latency change    = 1
throughput change = 1
Class 0:
Packet latency average = 19.9884
	minimum = 7
	maximum = 57
Network latency average = 19.9884
	minimum = 7
	maximum = 57
Slowest packet = 32874
Flit latency average = 19.9884
	minimum = 7
	maximum = 57
Slowest flit = 32874
Fragmentation average = 0
	minimum = 0
	maximum = 0
Injected packet rate average = 0.0110625
	minimum = 0.005 (at node 2)
	maximum = 0.017 (at node 14)
Accepted packet rate average = 0.01075
	minimum = 0.005 (at node 8)
	maximum = 0.017 (at node 11)
Injected flit rate average = 0.0110625
	minimum = 0.005 (at node 2)
	maximum = 0.017 (at node 14)
Accepted flit rate average= 0.01075
	minimum = 0.005 (at node 8)
	maximum = 0.017 (at node 11)
Injected packet length average = 1
Accepted packet length average = 1
Total in-flight flits = 5 (0 measured)
latency change    = 0.00846608
throughput change = 0.0930233
Class 0:
Packet latency average = 20.561
	minimum = 7
	maximum = 49
Network latency average = 20.561
	minimum = 7
	maximum = 49
Slowest packet = 33053
Flit latency average = 20.561
	minimum = 7
	maximum = 49
Slowest flit = 33053
Fragmentation average = 0
	minimum = 0
	maximum = 0
Injected packet rate average = 0.010125
	minimum = 0.002 (at node 0)
	maximum = 0.024 (at node 6)
Accepted packet rate average = 0.01025
	minimum = 0.002 (at node 0)
	maximum = 0.024 (at node 9)
Injected flit rate average = 0.010125
	minimum = 0.002 (at node 0)
	maximum = 0.024 (at node 6)
Accepted flit rate average= 0.01025
	minimum = 0.002 (at node 0)
	maximum = 0.024 (at node 9)
Injected packet length average = 1
Accepted packet length average = 1
Total in-flight flits = 4 (0 measured)
latency change    = 0.027849
throughput change = 0.0487805
Warmed up ...Time used is 1500 cycles
Class 0:
Packet latency average = 19.6711
	minimum = 7
	maximum = 53
Network latency average = 19.6711
	minimum = 7
	maximum = 53
Slowest packet = 33103
Flit latency average = 19.9125
	minimum = 7
	maximum = 53
Slowest flit = 33103
Fragmentation average = 0
	minimum = 0
	maximum = 0
Injected packet rate average = 0.009875
	minimum = 0.002 (at node 8)
	maximum = 0.018 (at node 10)
Accepted packet rate average = 0.01
	minimum = 0.004 (at node 1)
	maximum = 0.018 (at node 3)
Injected flit rate average = 0.009875
	minimum = 0.002 (at node 8)
	maximum = 0.018 (at node 10)
Accepted flit rate average= 0.01
	minimum = 0.004 (at node 1)
	maximum = 0.018 (at node 3)
Injected packet length average = 1
Accepted packet length average = 1
Total in-flight flits = 3 (3 measured)
latency change    = 0.0452402
throughput change = 0.025
Class 0:
Packet latency average = 19.284
	minimum = 7
	maximum = 53
Network latency average = 19.284
	minimum = 7
	maximum = 53
Slowest packet = 33103
Flit latency average = 19.4096
	minimum = 7
	maximum = 53
Slowest flit = 33103
Fragmentation average = 0
	minimum = 0
	maximum = 0
Injected packet rate average = 0.0103125
	minimum = 0.005 (at node 4)
	maximum = 0.019 (at node 10)
Accepted packet rate average = 0.010375
	minimum = 0.005 (at node 1)
	maximum = 0.019 (at node 10)
Injected flit rate average = 0.0103125
	minimum = 0.005 (at node 4)
	maximum = 0.019 (at node 10)
Accepted flit rate average= 0.010375
	minimum = 0.005 (at node 1)
	maximum = 0.019 (at node 10)
Injected packet length average = 1
Accepted packet length average = 1
Total in-flight flits = 3 (3 measured)
latency change    = 0.0200738
throughput change = 0.0361446
Class 0:
Packet latency average = 19.588
	minimum = 7
	maximum = 53
Network latency average = 19.588
	minimum = 7
	maximum = 53
Slowest packet = 33103
Flit latency average = 19.6709
	minimum = 7
	maximum = 53
Slowest flit = 33103
Fragmentation average = 0
	minimum = 0
	maximum = 0
Injected packet rate average = 0.009875
	minimum = 0.00533333 (at node 3)
	maximum = 0.0166667 (at node 6)
Accepted packet rate average = 0.009875
	minimum = 0.00466667 (at node 12)
	maximum = 0.0166667 (at node 9)
Injected flit rate average = 0.009875
	minimum = 0.00533333 (at node 3)
	maximum = 0.0166667 (at node 6)
Accepted flit rate average= 0.009875
	minimum = 0.00466667 (at node 12)
	maximum = 0.0166667 (at node 9)
Injected packet length average = 1
Accepted packet length average = 1
Total in-flight flits = 4 (4 measured)
latency change    = 0.0155214
throughput change = 0.0506329
Class 0:
Packet latency average = 20.4648
	minimum = 7
	maximum = 55
Network latency average = 20.4648
	minimum = 7
	maximum = 55
Slowest packet = 33375
Flit latency average = 20.5136
	minimum = 7
	maximum = 55
Slowest flit = 33375
Fragmentation average = 0
	minimum = 0
	maximum = 0
Injected packet rate average = 0.0102813
	minimum = 0.0075 (at node 3)
	maximum = 0.0155 (at node 10)
Accepted packet rate average = 0.0103438
	minimum = 0.0075 (at node 12)
	maximum = 0.0155 (at node 10)
Injected flit rate average = 0.0102813
	minimum = 0.0075 (at node 3)
	maximum = 0.0155 (at node 10)
Accepted flit rate average= 0.0103438
	minimum = 0.0075 (at node 12)
	maximum = 0.0155 (at node 10)
Injected packet length average = 1
Accepted packet length average = 1
Total in-flight flits = 2 (2 measured)
latency change    = 0.0428466
throughput change = 0.0453172
Class 0:
Packet latency average = 20.8609
	minimum = 7
	maximum = 55
Network latency average = 20.8609
	minimum = 7
	maximum = 55
Slowest packet = 33375
Flit latency average = 20.8955
	minimum = 7
	maximum = 55
Slowest flit = 33375
Fragmentation average = 0
	minimum = 0
	maximum = 0
Injected packet rate average = 0.010575
	minimum = 0.0072 (at node 4)
	maximum = 0.014 (at node 10)
Accepted packet rate average = 0.010525
	minimum = 0.0072 (at node 1)
	maximum = 0.014 (at node 10)
Injected flit rate average = 0.010575
	minimum = 0.0072 (at node 4)
	maximum = 0.014 (at node 10)
Accepted flit rate average= 0.010525
	minimum = 0.0072 (at node 1)
	maximum = 0.014 (at node 10)
Injected packet length average = 1
Accepted packet length average = 1
Total in-flight flits = 6 (6 measured)
latency change    = 0.0189867
throughput change = 0.0172209
Class 0:
Packet latency average = 20.8229
	minimum = 7
	maximum = 55
Network latency average = 20.8229
	minimum = 7
	maximum = 55
Slowest packet = 33375
Flit latency average = 20.8523
	minimum = 7
	maximum = 55
Slowest flit = 33375
Fragmentation average = 0
	minimum = 0
	maximum = 0
Injected packet rate average = 0.0103958
	minimum = 0.00833333 (at node 15)
	maximum = 0.014 (at node 14)
Accepted packet rate average = 0.0104375
	minimum = 0.00833333 (at node 1)
	maximum = 0.0143333 (at node 11)
Injected flit rate average = 0.0103958
	minimum = 0.00833333 (at node 15)
	maximum = 0.014 (at node 14)
Accepted flit rate average= 0.0104375
	minimum = 0.00833333 (at node 1)
	maximum = 0.0143333 (at node 11)
Injected packet length average = 1
Accepted packet length average = 1
Total in-flight flits = 2 (2 measured)
latency change    = 0.00182364
throughput change = 0.00838323
Draining all recorded packets ...
Draining remaining packets ...
Time taken is 4546 cycles
====== Overall Traffic Statistics ======
====== Traffic class 0 ======
Packet latency average = 21.1381 (50 samples)
	minimum = 7 (50 samples)
	maximum = 57.72 (50 samples)
Network latency average = 21.1381 (50 samples)
	minimum = 7 (50 samples)
	maximum = 57.72 (50 samples)
Flit latency average = 21.2101 (50 samples)
	minimum = 7 (50 samples)
	maximum = 57.8 (50 samples)
Fragmentation average = 0 (50 samples)
	minimum = 0 (50 samples)
	maximum = 0 (50 samples)
Injected packet rate average = 0.00999259 (50 samples)
	minimum = 0.00669752 (50 samples)
	maximum = 0.013769 (50 samples)
Accepted packet rate average = 0.0100005 (50 samples)
	minimum = 0.006746 (50 samples)
	maximum = 0.013758 (50 samples)
Injected flit rate average = 0.00999259 (50 samples)
	minimum = 0.00669752 (50 samples)
	maximum = 0.013769 (50 samples)
Accepted flit rate average = 0.0100005 (50 samples)
	minimum = 0.006746 (50 samples)
	maximum = 0.013758 (50 samples)
Injected packet size average = 1 (50 samples)
Accepted packet size average = 1 (50 samples)
Hops average = 3.74628 (50 samples)
Total run time 1.17178
