BEGIN Configuration File: /tmp/tmpbl_cu6yk.cfg
topology = mesh;
k = 4;
n = 2;
routing_function = gnn_port_score_route_4x4;
num_vcs = 4;
vc_buf_size = 4;
wait_for_tail_credit = 1;
vc_allocator = islip;
sw_allocator = islip;
alloc_iters = 1;
credit_delay = 2;
routing_delay = 1;
vc_alloc_delay = 1;
sw_alloc_delay = 1;
input_speedup = 2;
output_speedup = 1;
internal_speedup = 1.0;
traffic = hotspot;
packet_size = 1;
sim_type = latency;
injection_rate = 0.01;
warmup_periods = 3;
sample_period = 500;
sim_count = 50;
seed = 2;
link_failures = 2;
fail_seed = 303;

END Configuration File: /tmp/tmpbl_cu6yk.cfg
failure at node 9, channel 2 (1/2)
failure at node 15, channel 3 (2/2)
Class 0:
Packet latency average = 20.1452
	minimum = 7
	maximum = 33
Network latency average = 20.1452
	minimum = 7
	maximum = 33
Slowest packet = 10
Flit latency average = 20.1452
	minimum = 7
	maximum = 33
Slowest flit = 10
Fragmentation average = 0
	minimum = 0
	maximum = 0
Injected packet rate average = 0.008125
	minimum = 0 (at node 9)
	maximum = 0.014 (at node 5)
Accepted packet rate average = 0.00775
	minimum = 0 (at node 0)
	maximum = 0.124 (at node 2)
Injected flit rate average = 0.008125
	minimum = 0 (at node 9)
	maximum = 0.014 (at node 5)
Accepted flit rate average= 0.00775
	minimum = 0 (at node 0)
	maximum = 0.124 (at node 2)
Injected packet length average = 1
Accepted packet length average = 1
Total in-flight flits = 3 (0 measured)
latency change    = 1
throughput change = 1
Class 0:
Packet latency average = 20.3008
	minimum = 7
	maximum = 36
Network latency average = 20.3008
	minimum = 7
	maximum = 36
Slowest packet = 76
Flit latency average = 20.3008
	minimum = 7
	maximum = 36
Slowest flit = 76
Fragmentation average = 0
	minimum = 0
	maximum = 0
Injected packet rate average = 0.008625
	minimum = 0.003 (at node 2)
	maximum = 0.015 (at node 13)
Accepted packet rate average = 0.0083125
	minimum = 0 (at node 0)
	maximum = 0.133 (at node 2)
Injected flit rate average = 0.008625
	minimum = 0.003 (at node 2)
	maximum = 0.015 (at node 13)
Accepted flit rate average= 0.0083125
	minimum = 0 (at node 0)
	maximum = 0.133 (at node 2)
Injected packet length average = 1
Accepted packet length average = 1
Total in-flight flits = 5 (0 measured)
latency change    = 0.00766428
throughput change = 0.0676692
Class 0:
Packet latency average = 23.1786
	minimum = 7
	maximum = 41
Network latency average = 23.1786
	minimum = 7
	maximum = 41
Slowest packet = 170
Flit latency average = 23.1786
	minimum = 7
	maximum = 41
Slowest flit = 170
Fragmentation average = 0
	minimum = 0
	maximum = 0
Injected packet rate average = 0.01
	minimum = 0.002 (at node 3)
	maximum = 0.022 (at node 13)
Accepted packet rate average = 0.0105
	minimum = 0 (at node 0)
	maximum = 0.168 (at node 2)
Injected flit rate average = 0.01
	minimum = 0.002 (at node 3)
	maximum = 0.022 (at node 13)
Accepted flit rate average= 0.0105
	minimum = 0 (at node 0)
	maximum = 0.168 (at node 2)
Injected packet length average = 1
Accepted packet length average = 1
Total in-flight flits = 1 (0 measured)
latency change    = 0.124159
throughput change = 0.208333
Warmed up ...Time used is 1500 cycles
Class 0:
Packet latency average = 20.0116
	minimum = 7
	maximum = 32
Network latency average = 20.0116
	minimum = 7
	maximum = 32
Slowest packet = 220
Flit latency average = 19.9195
	minimum = 7
	maximum = 32
Slowest flit = 220
Fragmentation average = 0
	minimum = 0
	maximum = 0
Injected packet rate average = 0.01125
	minimum = 0.004 (at node 15)
	maximum = 0.022 (at node 10)
Accepted packet rate average = 0.010875
	minimum = 0 (at node 0)
	maximum = 0.174 (at node 2)
Injected flit rate average = 0.01125
	minimum = 0.004 (at node 15)
	maximum = 0.022 (at node 10)
Accepted flit rate average= 0.010875
	minimum = 0 (at node 0)
	maximum = 0.174 (at node 2)
Injected packet length average = 1
Accepted packet length average = 1
Total in-flight flits = 4 (4 measured)
latency change    = 0.158255
throughput change = 0.0344828
Class 0:
Packet latency average = 19.6506
	minimum = 7
	maximum = 33
Network latency average = 19.6506
	minimum = 7
	maximum = 33
Slowest packet = 339
Flit latency average = 19.6048
	minimum = 7
	maximum = 33
Slowest flit = 339
Fragmentation average = 0
	minimum = 0
	maximum = 0
Injected packet rate average = 0.0105
	minimum = 0.006 (at node 2)
	maximum = 0.015 (at node 3)
Accepted packet rate average = 0.0104375
	minimum = 0 (at node 0)
	maximum = 0.167 (at node 2)
Injected flit rate average = 0.0105
	minimum = 0.006 (at node 2)
	maximum = 0.015 (at node 3)
Accepted flit rate average= 0.0104375
	minimum = 0 (at node 0)
	maximum = 0.167 (at node 2)
Injected packet length average = 1
Accepted packet length average = 1
Total in-flight flits = 2 (2 measured)
latency change    = 0.0183722
throughput change = 0.0419162
Class 0:
Packet latency average = 20.0897
	minimum = 7
	maximum = 48
Network latency average = 20.0897
	minimum = 7
	maximum = 48
Slowest packet = 435
Flit latency average = 20.0553
	minimum = 7
	maximum = 48
Slowest flit = 435
Fragmentation average = 0
	minimum = 0
	maximum = 0
Injected packet rate average = 0.00983333
	minimum = 0.00666667 (at node 1)
	maximum = 0.0153333 (at node 3)
Accepted packet rate average = 0.00979167
	minimum = 0 (at node 0)
	maximum = 0.156667 (at node 2)
Injected flit rate average = 0.00983333
	minimum = 0.00666667 (at node 1)
	maximum = 0.0153333 (at node 3)
Accepted flit rate average= 0.00979167
	minimum = 0 (at node 0)
	maximum = 0.156667 (at node 2)
Injected packet length average = 1
Accepted packet length average = 1
Total in-flight flits = 2 (2 measured)
latency change    = 0.021859
throughput change = 0.0659574
Class 0:
Packet latency average = 20.4534
	minimum = 7
	maximum = 48
Network latency average = 20.4534
	minimum = 7
	maximum = 48
Slowest packet = 435
Flit latency average = 20.4272
	minimum = 7
	maximum = 48
Slowest flit = 435
Fragmentation average = 0
	minimum = 0
	maximum = 0
Injected packet rate average = 0.0101875
	minimum = 0.0065 (at node 8)
	maximum = 0.014 (at node 10)
Accepted packet rate average = 0.0100938
	minimum = 0 (at node 0)
	maximum = 0.1615 (at node 2)
Injected flit rate average = 0.0101875
	minimum = 0.0065 (at node 8)
	maximum = 0.014 (at node 10)
Accepted flit rate average= 0.0100938
	minimum = 0 (at node 0)
	maximum = 0.1615 (at node 2)
Injected packet length average = 1
Accepted packet length average = 1
Total in-flight flits = 4 (4 measured)
latency change    = 0.0177805
throughput change = 0.0299278
Class 0:
Packet latency average = 20.5662
	minimum = 7
	maximum = 48
Network latency average = 20.5662
	minimum = 7
	maximum = 48
Slowest packet = 435
Flit latency average = 20.5452
	minimum = 7
	maximum = 48
Slowest flit = 435
Fragmentation average = 0
	minimum = 0
	maximum = 0
Injected packet rate average = 0.010275
	minimum = 0.0076 (at node 1)
	maximum = 0.0136 (at node 12)
Accepted packet rate average = 0.010225
	minimum = 0 (at node 0)
	maximum = 0.1636 (at node 2)
Injected flit rate average = 0.010275
	minimum = 0.0076 (at node 1)
	maximum = 0.0136 (at node 12)
Accepted flit rate average= 0.010225
	minimum = 0 (at node 0)
	maximum = 0.1636 (at node 2)
Injected packet length average = 1
Accepted packet length average = 1
Total in-flight flits = 3 (3 measured)
latency change    = 0.0054828
throughput change = 0.0128362
Class 0:
Packet latency average = 20.6885
	minimum = 7
	maximum = 48
Network latency average = 20.6885
	minimum = 7
	maximum = 48
Slowest packet = 435
Flit latency average = 20.6708
	minimum = 7
	maximum = 48
Slowest flit = 435
Fragmentation average = 0
	minimum = 0
	maximum = 0
Injected packet rate average = 0.0103125
	minimum = 0.00766667 (at node 1)
	maximum = 0.0136667 (at node 10)
Accepted packet rate average = 0.0101875
	minimum = 0 (at node 0)
	maximum = 0.163 (at node 2)
Injected flit rate average = 0.0103125
	minimum = 0.00766667 (at node 1)
	maximum = 0.0136667 (at node 10)
Accepted flit rate average= 0.0101875
	minimum = 0 (at node 0)
	maximum = 0.163 (at node 2)
Injected packet length average = 1
Accepted packet length average = 1
Total in-flight flits = 7 (7 measured)
latency change    = 0.00591382
throughput change = 0.00368098
Draining all recorded packets ...
Draining remaining packets ...
Time taken is 4543 cycles
Class 0:
Packet latency average = 18.2727
	minimum = 7
	maximum = 33
Network latency average = 18.2727
	minimum = 7
	maximum = 33
Slowest packet = 731
Flit latency average = 18.2727
	minimum = 7
	maximum = 33
Slowest flit = 731
Fragmentation average = 0
	minimum = 0
	maximum = 0
Injected packet rate average = 0.00875
	minimum = 0.004 (at node 7)
	maximum = 0.026 (at node 5)
Accepted packet rate average = 0.00825
	minimum = 0 (at node 0)
	maximum = 0.132 (at node 2)
Injected flit rate average = 0.00875
	minimum = 0.004 (at node 7)
	maximum = 0.026 (at node 5)
Accepted flit rate average= 0.00825
	minimum = 0 (at node 0)
	maximum = 0.132 (at node 2)
Injected packet length average = 1
Accepted packet length average = 1
Total in-flight flits = 4 (0 measured)
latency change    = 1
throughput change = 1
Class 0:
Packet latency average = 18.9057
	minimum = 7
	maximum = 33
Network latency average = 18.9057
	minimum = 7
	maximum = 33
Slowest packet = 731
Flit latency average = 18.9057
	minimum = 7
	maximum = 33
Slowest flit = 731
Fragmentation average = 0
	minimum = 0
	maximum = 0
Injected packet rate average = 0.01
	minimum = 0.005 (at node 2)
	maximum = 0.018 (at node 5)
Accepted packet rate average = 0.0099375
	minimum = 0 (at node 0)
	maximum = 0.159 (at node 2)
Injected flit rate average = 0.01
	minimum = 0.005 (at node 2)
	maximum = 0.018 (at node 5)
Accepted flit rate average= 0.0099375
	minimum = 0 (at node 0)
	maximum = 0.159 (at node 2)
Injected packet length average = 1
Accepted packet length average = 1
Total in-flight flits = 1 (0 measured)
latency change    = 0.0334785
throughput change = 0.169811
Class 0:
Packet latency average = 21.2027
	minimum = 7
	maximum = 41
Network latency average = 21.2027
	minimum = 7
	maximum = 41
Slowest packet = 929
Flit latency average = 21.2027
	minimum = 7
	maximum = 41
Slowest flit = 929
Fragmentation average = 0
	minimum = 0
	maximum = 0
Injected packet rate average = 0.009625
	minimum = 0.004 (at node 1)
	maximum = 0.018 (at node 9)
Accepted packet rate average = 0.00925
	minimum = 0 (at node 0)
	maximum = 0.148 (at node 2)
Injected flit rate average = 0.009625
	minimum = 0.004 (at node 1)
	maximum = 0.018 (at node 9)
Accepted flit rate average= 0.00925
	minimum = 0 (at node 0)
	maximum = 0.148 (at node 2)
Injected packet length average = 1
Accepted packet length average = 1
Total in-flight flits = 4 (0 measured)
latency change    = 0.108337
throughput change = 0.0743243
Warmed up ...Time used is 1500 cycles
Class 0:
Packet latency average = 19.9259
	minimum = 7
	maximum = 33
Network latency average = 19.9259
	minimum = 7
	maximum = 33
Slowest packet = 978
Flit latency average = 19.9882
	minimum = 7
	maximum = 33
Slowest flit = 978
Fragmentation average = 0
	minimum = 0
	maximum = 0
Injected packet rate average = 0.010625
	minimum = 0.004 (at node 6)
	maximum = 0.016 (at node 5)
Accepted packet rate average = 0.010625
	minimum = 0 (at node 0)
	maximum = 0.17 (at node 2)
Injected flit rate average = 0.010625
	minimum = 0.004 (at node 6)
	maximum = 0.016 (at node 5)
Accepted flit rate average= 0.010625
	minimum = 0 (at node 0)
	maximum = 0.17 (at node 2)
Injected packet length average = 1
Accepted packet length average = 1
Total in-flight flits = 4 (4 measured)
latency change    = 0.0640762
throughput change = 0.129412
Class 0:
Packet latency average = 20.883
	minimum = 7
	maximum = 37
Network latency average = 20.883
	minimum = 7
	maximum = 37
Slowest packet = 1096
Flit latency average = 20.8914
	minimum = 7
	maximum = 37
Slowest flit = 1096
Fragmentation average = 0
	minimum = 0
	maximum = 0
Injected packet rate average = 0.0109375
	minimum = 0.007 (at node 6)
	maximum = 0.015 (at node 5)
Accepted packet rate average = 0.0109375
	minimum = 0 (at node 0)
	maximum = 0.175 (at node 2)
Injected flit rate average = 0.0109375
	minimum = 0.007 (at node 6)
	maximum = 0.015 (at node 5)
Accepted flit rate average= 0.0109375
	minimum = 0 (at node 0)
	maximum = 0.175 (at node 2)
Injected packet length average = 1
Accepted packet length average = 1
Total in-flight flits = 4 (4 measured)
latency change    = 0.0458322
throughput change = 0.0285714
Class 0:
Packet latency average = 20.3346
	minimum = 7
	maximum = 41
Network latency average = 20.3346
	minimum = 7
	maximum = 41
Slowest packet = 1142
Flit latency average = 20.3488
	minimum = 7
	maximum = 41
Slowest flit = 1142
Fragmentation average = 0
	minimum = 0
	maximum = 0
Injected packet rate average = 0.01075
	minimum = 0.00866667 (at node 2)
	maximum = 0.0153333 (at node 5)
Accepted packet rate average = 0.01075
	minimum = 0 (at node 0)
	maximum = 0.172 (at node 2)
Injected flit rate average = 0.01075
	minimum = 0.00866667 (at node 2)
	maximum = 0.0153333 (at node 5)
Accepted flit rate average= 0.01075
	minimum = 0 (at node 0)
	maximum = 0.172 (at node 2)
Injected packet length average = 1
Accepted packet length average = 1
Total in-flight flits = 4 (4 measured)
latency change    = 0.0269685
throughput change = 0.0174419
Class 0:
Packet latency average = 20.0482
	minimum = 7
	maximum = 41
Network latency average = 20.0482
	minimum = 7
	maximum = 41
Slowest packet = 1142
Flit latency average = 20.0625
	minimum = 7
	maximum = 41
Slowest flit = 1142
Fragmentation average = 0
	minimum = 0
	maximum = 0
Injected packet rate average = 0.0104375
	minimum = 0.008 (at node 6)
	maximum = 0.015 (at node 3)
Accepted packet rate average = 0.0105
	minimum = 0 (at node 0)
	maximum = 0.168 (at node 2)
Injected flit rate average = 0.0104375
	minimum = 0.008 (at node 6)
	maximum = 0.015 (at node 3)
Accepted flit rate average= 0.0105
	minimum = 0 (at node 0)
	maximum = 0.168 (at node 2)
Injected packet length average = 1
Accepted packet length average = 1
Total in-flight flits = 2 (2 measured)
latency change    = 0.0142882
throughput change = 0.0238095
Draining all recorded packets ...
Draining remaining packets ...
Time taken is 3527 cycles
Class 0:
Packet latency average = 19.0667
	minimum = 7
	maximum = 34
Network latency average = 19.0667
	minimum = 7
	maximum = 34
Slowest packet = 1289
Flit latency average = 19.0667
	minimum = 7
	maximum = 34
Slowest flit = 1289
Fragmentation average = 0
	minimum = 0
	maximum = 0
Injected packet rate average = 0.009875
	minimum = 0.002 (at node 11)
	maximum = 0.014 (at node 1)
Accepted packet rate average = 0.009375
	minimum = 0 (at node 0)
	maximum = 0.15 (at node 2)
Injected flit rate average = 0.009875
	minimum = 0.002 (at node 11)
	maximum = 0.014 (at node 1)
Accepted flit rate average= 0.009375
	minimum = 0 (at node 0)
	maximum = 0.15 (at node 2)
Injected packet length average = 1
Accepted packet length average = 1
Total in-flight flits = 4 (0 measured)
latency change    = 1
throughput change = 1
Class 0:
Packet latency average = 20.1534
	minimum = 7
	maximum = 37
Network latency average = 20.1534
	minimum = 7
	maximum = 37
Slowest packet = 1390
Flit latency average = 20.1534
	minimum = 7
	maximum = 37
Slowest flit = 1390
Fragmentation average = 0
	minimum = 0
	maximum = 0
Injected packet rate average = 0.0105625
	minimum = 0.006 (at node 5)
	maximum = 0.015 (at node 15)
Accepted packet rate average = 0.0101875
	minimum = 0 (at node 0)
	maximum = 0.163 (at node 2)
Injected flit rate average = 0.0105625
	minimum = 0.006 (at node 5)
	maximum = 0.015 (at node 15)
Accepted flit rate average= 0.0101875
	minimum = 0 (at node 0)
	maximum = 0.163 (at node 2)
Injected packet length average = 1
Accepted packet length average = 1
Total in-flight flits = 6 (0 measured)
latency change    = 0.0539219
throughput change = 0.0797546
Class 0:
Packet latency average = 20.8969
	minimum = 7
	maximum = 38
Network latency average = 20.8969
	minimum = 7
	maximum = 38
Slowest packet = 1450
Flit latency average = 20.8969
	minimum = 7
	maximum = 38
Slowest flit = 1450
Fragmentation average = 0
	minimum = 0
	maximum = 0
Injected packet rate average = 0.0115
	minimum = 0 (at node 7)
	maximum = 0.022 (at node 0)
Accepted packet rate average = 0.012125
	minimum = 0 (at node 0)
	maximum = 0.194 (at node 2)
Injected flit rate average = 0.0115
	minimum = 0 (at node 7)
	maximum = 0.022 (at node 0)
Accepted flit rate average= 0.012125
	minimum = 0 (at node 0)
	maximum = 0.194 (at node 2)
Injected packet length average = 1
Accepted packet length average = 1
Total in-flight flits = 1 (0 measured)
latency change    = 0.035581
throughput change = 0.159794
Warmed up ...Time used is 1500 cycles
Class 0:
Packet latency average = 20.9468
	minimum = 7
	maximum = 37
Network latency average = 20.9468
	minimum = 7
	maximum = 37
Slowest packet = 1568
Flit latency average = 21.0105
	minimum = 7
	maximum = 37
Slowest flit = 1568
Fragmentation average = 0
	minimum = 0
	maximum = 0
Injected packet rate average = 0.01175
	minimum = 0.004 (at node 1)
	maximum = 0.022 (at node 0)
Accepted packet rate average = 0.011875
	minimum = 0 (at node 0)
	maximum = 0.19 (at node 2)
Injected flit rate average = 0.01175
	minimum = 0.004 (at node 1)
	maximum = 0.022 (at node 0)
Accepted flit rate average= 0.011875
	minimum = 0 (at node 0)
	maximum = 0.19 (at node 2)
Injected packet length average = 1
Accepted packet length average = 1
Total in-flight flits = 0 (0 measured)
latency change    = 0.00238229
throughput change = 0.0210526
Class 0:
Packet latency average = 21.052
	minimum = 7
	maximum = 44
Network latency average = 21.052
	minimum = 7
	maximum = 44
Slowest packet = 1705
Flit latency average = 21.0862
	minimum = 7
	maximum = 44
Slowest flit = 1705
Fragmentation average = 0
	minimum = 0
	maximum = 0
Injected packet rate average = 0.0111875
	minimum = 0.005 (at node 3)
	maximum = 0.019 (at node 14)
Accepted packet rate average = 0.010875
	minimum = 0 (at node 0)
	maximum = 0.174 (at node 2)
Injected flit rate average = 0.0111875
	minimum = 0.005 (at node 3)
	maximum = 0.019 (at node 14)
Accepted flit rate average= 0.010875
	minimum = 0 (at node 0)
	maximum = 0.174 (at node 2)
Injected packet length average = 1
Accepted packet length average = 1
Total in-flight flits = 6 (6 measured)
latency change    = 0.00499784
throughput change = 0.091954
Class 0:
Packet latency average = 20.5655
	minimum = 7
	maximum = 44
Network latency average = 20.5655
	minimum = 7
	maximum = 44
Slowest packet = 1705
Flit latency average = 20.5896
	minimum = 7
	maximum = 44
Slowest flit = 1705
Fragmentation average = 0
	minimum = 0
	maximum = 0
Injected packet rate average = 0.0113333
	minimum = 0.00466667 (at node 1)
	maximum = 0.018 (at node 6)
Accepted packet rate average = 0.0111667
	minimum = 0 (at node 0)
	maximum = 0.178667 (at node 2)
Injected flit rate average = 0.0113333
	minimum = 0.00466667 (at node 1)
	maximum = 0.018 (at node 6)
Accepted flit rate average= 0.0111667
	minimum = 0 (at node 0)
	maximum = 0.178667 (at node 2)
Injected packet length average = 1
Accepted packet length average = 1
Total in-flight flits = 5 (5 measured)
latency change    = 0.0236551
throughput change = 0.0261194
Class 0:
Packet latency average = 20.5778
	minimum = 7
	maximum = 45
Network latency average = 20.5778
	minimum = 7
	maximum = 45
Slowest packet = 1807
Flit latency average = 20.5956
	minimum = 7
	maximum = 45
Slowest flit = 1807
Fragmentation average = 0
	minimum = 0
	maximum = 0
Injected packet rate average = 0.0113125
	minimum = 0.0065 (at node 9)
	maximum = 0.0155 (at node 6)
Accepted packet rate average = 0.0112812
	minimum = 0 (at node 0)
	maximum = 0.1805 (at node 2)
Injected flit rate average = 0.0113125
	minimum = 0.0065 (at node 9)
	maximum = 0.0155 (at node 6)
Accepted flit rate average= 0.0112812
	minimum = 0 (at node 0)
	maximum = 0.1805 (at node 2)
Injected packet length average = 1
Accepted packet length average = 1
Total in-flight flits = 2 (2 measured)
latency change    = 0.000594559
throughput change = 0.010157
Class 0:
Packet latency average = 20.3394
	minimum = 7
	maximum = 45
Network latency average = 20.3394
	minimum = 7
	maximum = 45
Slowest packet = 1807
Flit latency average = 20.3544
	minimum = 7
	maximum = 45
Slowest flit = 1807
Fragmentation average = 0
	minimum = 0
	maximum = 0
Injected packet rate average = 0.011075
	minimum = 0.0056 (at node 9)
	maximum = 0.0144 (at node 6)
Accepted packet rate average = 0.011075
	minimum = 0 (at node 0)
	maximum = 0.1772 (at node 2)
Injected flit rate average = 0.011075
	minimum = 0.0056 (at node 9)
	maximum = 0.0144 (at node 6)
Accepted flit rate average= 0.011075
	minimum = 0 (at node 0)
	maximum = 0.1772 (at node 2)
Injected packet length average = 1
Accepted packet length average = 1
Total in-flight flits = 1 (1 measured)
latency change    = 0.0117217
throughput change = 0.018623
Draining all recorded packets ...
Draining remaining packets ...
Time taken is 4022 cycles
Class 0:
Packet latency average = 19.4648
	minimum = 7
	maximum = 32
Network latency average = 19.4648
	minimum = 7
	maximum = 32
Slowest packet = 2014
Flit latency average = 19.4648
	minimum = 7
	maximum = 32
Slowest flit = 2014
Fragmentation average = 0
	minimum = 0
	maximum = 0
Injected packet rate average = 0.00925
	minimum = 0.002 (at node 10)
	maximum = 0.014 (at node 6)
Accepted packet rate average = 0.008875
	minimum = 0 (at node 0)
	maximum = 0.142 (at node 2)
Injected flit rate average = 0.00925
	minimum = 0.002 (at node 10)
	maximum = 0.014 (at node 6)
Accepted flit rate average= 0.008875
	minimum = 0 (at node 0)
	maximum = 0.142 (at node 2)
Injected packet length average = 1
Accepted packet length average = 1
Total in-flight flits = 3 (0 measured)
latency change    = 1
throughput change = 1
Class 0:
Packet latency average = 19.5282
	minimum = 7
	maximum = 40
Network latency average = 19.5282
	minimum = 7
	maximum = 40
Slowest packet = 2072
Flit latency average = 19.5282
	minimum = 7
	maximum = 40
Slowest flit = 2072
Fragmentation average = 0
	minimum = 0
	maximum = 0
Injected packet rate average = 0.0090625
	minimum = 0.003 (at node 10)
	maximum = 0.014 (at node 0)
Accepted packet rate average = 0.008875
	minimum = 0 (at node 0)
	maximum = 0.142 (at node 2)
Injected flit rate average = 0.0090625
	minimum = 0.003 (at node 10)
	maximum = 0.014 (at node 0)
Accepted flit rate average= 0.008875
	minimum = 0 (at node 0)
	maximum = 0.142 (at node 2)
Injected packet length average = 1
Accepted packet length average = 1
Total in-flight flits = 3 (0 measured)
latency change    = 0.00324558
throughput change = 0
Class 0:
Packet latency average = 22.0667
	minimum = 7
	maximum = 52
Network latency average = 22.0667
	minimum = 7
	maximum = 52
Slowest packet = 2208
Flit latency average = 22.0667
	minimum = 7
	maximum = 52
Slowest flit = 2208
Fragmentation average = 0
	minimum = 0
	maximum = 0
Injected packet rate average = 0.0115
	minimum = 0.004 (at node 6)
	maximum = 0.024 (at node 14)
Accepted packet rate average = 0.01125
	minimum = 0 (at node 0)
	maximum = 0.18 (at node 2)
Injected flit rate average = 0.0115
	minimum = 0.004 (at node 6)
	maximum = 0.024 (at node 14)
Accepted flit rate average= 0.01125
	minimum = 0 (at node 0)
	maximum = 0.18 (at node 2)
Injected packet length average = 1
Accepted packet length average = 1
Total in-flight flits = 5 (0 measured)
latency change    = 0.115038
throughput change = 0.211111
Warmed up ...Time used is 1500 cycles
Class 0:
Packet latency average = 19.5395
	minimum = 7
	maximum = 36
Network latency average = 19.5395
	minimum = 7
	maximum = 36
Slowest packet = 2289
Flit latency average = 20.037
	minimum = 7
	maximum = 36
Slowest flit = 2289
Fragmentation average = 0
	minimum = 0
	maximum = 0
Injected packet rate average = 0.009625
	minimum = 0.004 (at node 8)
	maximum = 0.016 (at node 4)
Accepted packet rate average = 0.010125
	minimum = 0 (at node 0)
	maximum = 0.162 (at node 2)
Injected flit rate average = 0.009625
	minimum = 0.004 (at node 8)
	maximum = 0.016 (at node 4)
Accepted flit rate average= 0.010125
	minimum = 0 (at node 0)
	maximum = 0.162 (at node 2)
Injected packet length average = 1
Accepted packet length average = 1
Total in-flight flits = 1 (1 measured)
latency change    = 0.129338
throughput change = 0.111111
Class 0:
Packet latency average = 20.0464
	minimum = 7
	maximum = 40
Network latency average = 20.0464
	minimum = 7
	maximum = 40
Slowest packet = 2348
Flit latency average = 20.2885
	minimum = 7
	maximum = 40
Slowest flit = 2348
Fragmentation average = 0
	minimum = 0
	maximum = 0
Injected packet rate average = 0.0096875
	minimum = 0.005 (at node 3)
	maximum = 0.015 (at node 5)
Accepted packet rate average = 0.00975
	minimum = 0 (at node 0)
	maximum = 0.156 (at node 2)
Injected flit rate average = 0.0096875
	minimum = 0.005 (at node 3)
	maximum = 0.015 (at node 5)
Accepted flit rate average= 0.00975
	minimum = 0 (at node 0)
	maximum = 0.156 (at node 2)
Injected packet length average = 1
Accepted packet length average = 1
Total in-flight flits = 4 (4 measured)
latency change    = 0.0252856
throughput change = 0.0384615
Class 0:
Packet latency average = 20.1266
	minimum = 7
	maximum = 40
Network latency average = 20.1266
	minimum = 7
	maximum = 40
Slowest packet = 2348
Flit latency average = 20.2863
	minimum = 7
	maximum = 40
Slowest flit = 2348
Fragmentation average = 0
	minimum = 0
	maximum = 0
Injected packet rate average = 0.00970833
	minimum = 0.006 (at node 3)
	maximum = 0.0126667 (at node 2)
Accepted packet rate average = 0.00975
	minimum = 0 (at node 0)
	maximum = 0.156 (at node 2)
Injected flit rate average = 0.00970833
	minimum = 0.006 (at node 3)
	maximum = 0.0126667 (at node 2)
Accepted flit rate average= 0.00975
	minimum = 0 (at node 0)
	maximum = 0.156 (at node 2)
Injected packet length average = 1
Accepted packet length average = 1
Total in-flight flits = 4 (4 measured)
latency change    = 0.00398874
throughput change = 0
Class 0:
Packet latency average = 20.3762
	minimum = 7
	maximum = 44
Network latency average = 20.3762
	minimum = 7
	maximum = 44
Slowest packet = 2531
Flit latency average = 20.4877
	minimum = 7
	maximum = 44
Slowest flit = 2531
Fragmentation average = 0
	minimum = 0
	maximum = 0
Injected packet rate average = 0.0101563
	minimum = 0.0065 (at node 3)
	maximum = 0.012 (at node 1)
Accepted packet rate average = 0.010125
	minimum = 0 (at node 0)
	maximum = 0.162 (at node 2)
Injected flit rate average = 0.0101563
	minimum = 0.0065 (at node 3)
	maximum = 0.012 (at node 1)
Accepted flit rate average= 0.010125
	minimum = 0 (at node 0)
	maximum = 0.162 (at node 2)
Injected packet length average = 1
Accepted packet length average = 1
Total in-flight flits = 6 (6 measured)
latency change    = 0.0122466
throughput change = 0.037037
Draining all recorded packets ...
Draining remaining packets ...
Time taken is 3561 cycles
Class 0:
Packet latency average = 20.25
	minimum = 7
	maximum = 37
Network latency average = 20.25
	minimum = 7
	maximum = 37
Slowest packet = 2582
Flit latency average = 20.25
	minimum = 7
	maximum = 37
Slowest flit = 2582
Fragmentation average = 0
	minimum = 0
	maximum = 0
Injected packet rate average = 0.0105
	minimum = 0.004 (at node 4)
	maximum = 0.018 (at node 11)
Accepted packet rate average = 0.0105
	minimum = 0 (at node 0)
	maximum = 0.168 (at node 2)
Injected flit rate average = 0.0105
	minimum = 0.004 (at node 4)
	maximum = 0.018 (at node 11)
Accepted flit rate average= 0.0105
	minimum = 0 (at node 0)
	maximum = 0.168 (at node 2)
Injected packet length average = 1
Accepted packet length average = 1
Total in-flight flits = 0 (0 measured)
latency change    = 1
throughput change = 1
Class 0:
Packet latency average = 20.0559
	minimum = 7
	maximum = 39
Network latency average = 20.0559
	minimum = 7
	maximum = 39
Slowest packet = 2699
Flit latency average = 20.0559
	minimum = 7
	maximum = 39
Slowest flit = 2699
Fragmentation average = 0
	minimum = 0
	maximum = 0
Injected packet rate average = 0.010375
	minimum = 0.005 (at node 7)
	maximum = 0.016 (at node 3)
Accepted packet rate average = 0.0100625
	minimum = 0 (at node 0)
	maximum = 0.161 (at node 2)
Injected flit rate average = 0.010375
	minimum = 0.005 (at node 7)
	maximum = 0.016 (at node 3)
Accepted flit rate average= 0.0100625
	minimum = 0 (at node 0)
	maximum = 0.161 (at node 2)
Injected packet length average = 1
Accepted packet length average = 1
Total in-flight flits = 5 (0 measured)
latency change    = 0.00967792
throughput change = 0.0434783
Class 0:
Packet latency average = 20.209
	minimum = 7
	maximum = 41
Network latency average = 20.209
	minimum = 7
	maximum = 41
Slowest packet = 2764
Flit latency average = 20.209
	minimum = 7
	maximum = 41
Slowest flit = 2764
Fragmentation average = 0
	minimum = 0
	maximum = 0
Injected packet rate average = 0.008375
	minimum = 0 (at node 7)
	maximum = 0.018 (at node 6)
Accepted packet rate average = 0.008375
	minimum = 0 (at node 0)
	maximum = 0.134 (at node 2)
Injected flit rate average = 0.008375
	minimum = 0 (at node 7)
	maximum = 0.018 (at node 6)
Accepted flit rate average= 0.008375
	minimum = 0 (at node 0)
	maximum = 0.134 (at node 2)
Injected packet length average = 1
Accepted packet length average = 1
Total in-flight flits = 5 (0 measured)
latency change    = 0.0075736
throughput change = 0.201493
Warmed up ...Time used is 1500 cycles
Class 0:
Packet latency average = 19.1471
	minimum = 7
	maximum = 34
Network latency average = 19.1471
	minimum = 7
	maximum = 34
Slowest packet = 2807
Flit latency average = 19.4658
	minimum = 7
	maximum = 34
Slowest flit = 2807
Fragmentation average = 0
	minimum = 0
	maximum = 0
Injected packet rate average = 0.008875
	minimum = 0.002 (at node 8)
	maximum = 0.018 (at node 6)
Accepted packet rate average = 0.009125
	minimum = 0 (at node 0)
	maximum = 0.146 (at node 2)
Injected flit rate average = 0.008875
	minimum = 0.002 (at node 8)
	maximum = 0.018 (at node 6)
Accepted flit rate average= 0.009125
	minimum = 0 (at node 0)
	maximum = 0.146 (at node 2)
Injected packet length average = 1
Accepted packet length average = 1
Total in-flight flits = 3 (3 measured)
latency change    = 0.05546
throughput change = 0.0821918
Class 0:
Packet latency average = 19.6781
	minimum = 7
	maximum = 36
Network latency average = 19.6781
	minimum = 7
	maximum = 36
Slowest packet = 2904
Flit latency average = 19.8146
	minimum = 7
	maximum = 36
Slowest flit = 2904
Fragmentation average = 0
	minimum = 0
	maximum = 0
Injected packet rate average = 0.0093125
	minimum = 0.004 (at node 3)
	maximum = 0.013 (at node 2)
Accepted packet rate average = 0.0094375
	minimum = 0 (at node 0)
	maximum = 0.151 (at node 2)
Injected flit rate average = 0.0093125
	minimum = 0.004 (at node 3)
	maximum = 0.013 (at node 2)
Accepted flit rate average= 0.0094375
	minimum = 0 (at node 0)
	maximum = 0.151 (at node 2)
Injected packet length average = 1
Accepted packet length average = 1
Total in-flight flits = 3 (3 measured)
latency change    = 0.0269855
throughput change = 0.0331126
Class 0:
Packet latency average = 19.4692
	minimum = 7
	maximum = 38
Network latency average = 19.4692
	minimum = 7
	maximum = 38
Slowest packet = 2994
Flit latency average = 19.5694
	minimum = 7
	maximum = 38
Slowest flit = 2994
Fragmentation average = 0
	minimum = 0
	maximum = 0
Injected packet rate average = 0.008875
	minimum = 0.00533333 (at node 3)
	maximum = 0.0126667 (at node 2)
Accepted packet rate average = 0.009
	minimum = 0 (at node 0)
	maximum = 0.144 (at node 2)
Injected flit rate average = 0.008875
	minimum = 0.00533333 (at node 3)
	maximum = 0.0126667 (at node 2)
Accepted flit rate average= 0.009
	minimum = 0 (at node 0)
	maximum = 0.144 (at node 2)
Injected packet length average = 1
Accepted packet length average = 1
Total in-flight flits = 2 (2 measured)
latency change    = 0.0107291
throughput change = 0.0486111
Class 0:
Packet latency average = 19.5797
	minimum = 7
	maximum = 38
Network latency average = 19.5797
	minimum = 7
	maximum = 38
Slowest packet = 2994
Flit latency average = 19.6548
	minimum = 7
	maximum = 38
Slowest flit = 2994
Fragmentation average = 0
	minimum = 0
	maximum = 0
Injected packet rate average = 0.0088125
	minimum = 0.006 (at node 3)
	maximum = 0.012 (at node 2)
Accepted packet rate average = 0.00878125
	minimum = 0 (at node 0)
	maximum = 0.1405 (at node 2)
Injected flit rate average = 0.0088125
	minimum = 0.006 (at node 3)
	maximum = 0.012 (at node 2)
Accepted flit rate average= 0.00878125
	minimum = 0 (at node 0)
	maximum = 0.1405 (at node 2)
Injected packet length average = 1
Accepted packet length average = 1
Total in-flight flits = 6 (6 measured)
latency change    = 0.00564441
throughput change = 0.024911
Draining all recorded packets ...
Draining remaining packets ...
Time taken is 3549 cycles
Class 0:
Packet latency average = 21.1481
	minimum = 7
	maximum = 38
Network latency average = 21.1481
	minimum = 7
	maximum = 38
Slowest packet = 3110
Flit latency average = 21.1481
	minimum = 7
	maximum = 38
Slowest flit = 3110
Fragmentation average = 0
	minimum = 0
	maximum = 0
Injected packet rate average = 0.010625
	minimum = 0 (at node 4)
	maximum = 0.024 (at node 12)
Accepted packet rate average = 0.010125
	minimum = 0 (at node 0)
	maximum = 0.162 (at node 2)
Injected flit rate average = 0.010625
	minimum = 0 (at node 4)
	maximum = 0.024 (at node 12)
Accepted flit rate average= 0.010125
	minimum = 0 (at node 0)
	maximum = 0.162 (at node 2)
Injected packet length average = 1
Accepted packet length average = 1
Total in-flight flits = 4 (0 measured)
latency change    = 1
throughput change = 1
Class 0:
Packet latency average = 20.7692
	minimum = 7
	maximum = 38
Network latency average = 20.7692
	minimum = 7
	maximum = 38
Slowest packet = 3110
Flit latency average = 20.7692
	minimum = 7
	maximum = 38
Slowest flit = 3110
Fragmentation average = 0
	minimum = 0
	maximum = 0
Injected packet rate average = 0.010125
	minimum = 0.005 (at node 4)
	maximum = 0.019 (at node 12)
Accepted packet rate average = 0.00975
	minimum = 0 (at node 0)
	maximum = 0.156 (at node 2)
Injected flit rate average = 0.010125
	minimum = 0.005 (at node 4)
	maximum = 0.019 (at node 12)
Accepted flit rate average= 0.00975
	minimum = 0 (at node 0)
	maximum = 0.156 (at node 2)
Injected packet length average = 1
Accepted packet length average = 1
Total in-flight flits = 6 (0 measured)
latency change    = 0.0182442
throughput change = 0.0384615
Class 0:
Packet latency average = 21.6566
	minimum = 7
	maximum = 43
Network latency average = 21.6566
	minimum = 7
	maximum = 43
Slowest packet = 3295
Flit latency average = 21.6566
	minimum = 7
	maximum = 43
Slowest flit = 3295
Fragmentation average = 0
	minimum = 0
	maximum = 0
Injected packet rate average = 0.011875
	minimum = 0.006 (at node 9)
	maximum = 0.024 (at node 15)
Accepted packet rate average = 0.012375
	minimum = 0 (at node 0)
	maximum = 0.198 (at node 2)
Injected flit rate average = 0.011875
	minimum = 0.006 (at node 9)
	maximum = 0.024 (at node 15)
Accepted flit rate average= 0.012375
	minimum = 0 (at node 0)
	maximum = 0.198 (at node 2)
Injected packet length average = 1
Accepted packet length average = 1
Total in-flight flits = 2 (0 measured)
latency change    = 0.040973
throughput change = 0.212121
Warmed up ...Time used is 1500 cycles
Class 0:
Packet latency average = 19.3976
	minimum = 7
	maximum = 34
Network latency average = 19.3976
	minimum = 7
	maximum = 34
Slowest packet = 3387
Flit latency average = 19.2235
	minimum = 7
	maximum = 34
Slowest flit = 3387
Fragmentation average = 0
	minimum = 0
	maximum = 0
Injected packet rate average = 0.01075
	minimum = 0.004 (at node 2)
	maximum = 0.022 (at node 3)
Accepted packet rate average = 0.010625
	minimum = 0 (at node 0)
	maximum = 0.17 (at node 2)
Injected flit rate average = 0.01075
	minimum = 0.004 (at node 2)
	maximum = 0.022 (at node 3)
Accepted flit rate average= 0.010625
	minimum = 0 (at node 0)
	maximum = 0.17 (at node 2)
Injected packet length average = 1
Accepted packet length average = 1
Total in-flight flits = 3 (3 measured)
latency change    = 0.116456
throughput change = 0.164706
Class 0:
Packet latency average = 19.5879
	minimum = 7
	maximum = 42
Network latency average = 19.5879
	minimum = 7
	maximum = 42
Slowest packet = 3444
Flit latency average = 19.497
	minimum = 7
	maximum = 42
Slowest flit = 3444
Fragmentation average = 0
	minimum = 0
	maximum = 0
Injected packet rate average = 0.0104375
	minimum = 0.006 (at node 9)
	maximum = 0.017 (at node 11)
Accepted packet rate average = 0.0104375
	minimum = 0 (at node 0)
	maximum = 0.167 (at node 2)
Injected flit rate average = 0.0104375
	minimum = 0.006 (at node 9)
	maximum = 0.017 (at node 11)
Accepted flit rate average= 0.0104375
	minimum = 0 (at node 0)
	maximum = 0.167 (at node 2)
Injected packet length average = 1
Accepted packet length average = 1
Total in-flight flits = 2 (2 measured)
latency change    = 0.0097146
throughput change = 0.0179641
Class 0:
Packet latency average = 20.0163
	minimum = 7
	maximum = 50
Network latency average = 20.0163
	minimum = 7
	maximum = 50
Slowest packet = 3565
Flit latency average = 19.9514
	minimum = 7
	maximum = 50
Slowest flit = 3565
Fragmentation average = 0
	minimum = 0
	maximum = 0
Injected packet rate average = 0.0102917
	minimum = 0.00666667 (at node 2)
	maximum = 0.014 (at node 11)
Accepted packet rate average = 0.0102917
	minimum = 0 (at node 0)
	maximum = 0.164667 (at node 2)
Injected flit rate average = 0.0102917
	minimum = 0.00666667 (at node 2)
	maximum = 0.014 (at node 11)
Accepted flit rate average= 0.0102917
	minimum = 0 (at node 0)
	maximum = 0.164667 (at node 2)
Injected packet length average = 1
Accepted packet length average = 1
Total in-flight flits = 2 (2 measured)
latency change    = 0.0214049
throughput change = 0.01417
Class 0:
Packet latency average = 19.9814
	minimum = 7
	maximum = 50
Network latency average = 19.9814
	minimum = 7
	maximum = 50
Slowest packet = 3565
Flit latency average = 19.9323
	minimum = 7
	maximum = 50
Slowest flit = 3565
Fragmentation average = 0
	minimum = 0
	maximum = 0
Injected packet rate average = 0.0102813
	minimum = 0.0055 (at node 10)
	maximum = 0.0145 (at node 11)
Accepted packet rate average = 0.0101563
	minimum = 0 (at node 0)
	maximum = 0.1625 (at node 2)
Injected flit rate average = 0.0102813
	minimum = 0.0055 (at node 10)
	maximum = 0.0145 (at node 11)
Accepted flit rate average= 0.0101563
	minimum = 0 (at node 0)
	maximum = 0.1625 (at node 2)
Injected packet length average = 1
Accepted packet length average = 1
Total in-flight flits = 6 (6 measured)
latency change    = 0.00174674
throughput change = 0.0133333
Draining all recorded packets ...
Draining remaining packets ...
Time taken is 3555 cycles
Class 0:
Packet latency average = 21.1625
	minimum = 7
	maximum = 42
Network latency average = 21.1625
	minimum = 7
	maximum = 42
Slowest packet = 3680
Flit latency average = 21.1625
	minimum = 7
	maximum = 42
Slowest flit = 3680
Fragmentation average = 0
	minimum = 0
	maximum = 0
Injected packet rate average = 0.01025
	minimum = 0.004 (at node 1)
	maximum = 0.018 (at node 13)
Accepted packet rate average = 0.01
	minimum = 0 (at node 0)
	maximum = 0.16 (at node 2)
Injected flit rate average = 0.01025
	minimum = 0.004 (at node 1)
	maximum = 0.018 (at node 13)
Accepted flit rate average= 0.01
	minimum = 0 (at node 0)
	maximum = 0.16 (at node 2)
Injected packet length average = 1
Accepted packet length average = 1
Total in-flight flits = 2 (0 measured)
latency change    = 1
throughput change = 1
Class 0:
Packet latency average = 21.5217
	minimum = 7
	maximum = 46
Network latency average = 21.5217
	minimum = 7
	maximum = 46
Slowest packet = 3756
Flit latency average = 21.5217
	minimum = 7
	maximum = 46
Slowest flit = 3756
Fragmentation average = 0
	minimum = 0
	maximum = 0
Injected packet rate average = 0.0101875
	minimum = 0.003 (at node 1)
	maximum = 0.014 (at node 8)
Accepted packet rate average = 0.0100625
	minimum = 0 (at node 0)
	maximum = 0.161 (at node 2)
Injected flit rate average = 0.0101875
	minimum = 0.003 (at node 1)
	maximum = 0.014 (at node 8)
Accepted flit rate average= 0.0100625
	minimum = 0 (at node 0)
	maximum = 0.161 (at node 2)
Injected packet length average = 1
Accepted packet length average = 1
Total in-flight flits = 2 (0 measured)
latency change    = 0.0166919
throughput change = 0.00621118
Class 0:
Packet latency average = 21.9667
	minimum = 7
	maximum = 32
Network latency average = 21.9667
	minimum = 7
	maximum = 32
Slowest packet = 3825
Flit latency average = 21.9667
	minimum = 7
	maximum = 32
Slowest flit = 3825
Fragmentation average = 0
	minimum = 0
	maximum = 0
Injected packet rate average = 0.007875
	minimum = 0 (at node 0)
	maximum = 0.016 (at node 4)
Accepted packet rate average = 0.0075
	minimum = 0 (at node 0)
	maximum = 0.12 (at node 2)
Injected flit rate average = 0.007875
	minimum = 0 (at node 0)
	maximum = 0.016 (at node 4)
Accepted flit rate average= 0.0075
	minimum = 0 (at node 0)
	maximum = 0.12 (at node 2)
Injected packet length average = 1
Accepted packet length average = 1
Total in-flight flits = 5 (0 measured)
latency change    = 0.0202547
throughput change = 0.341667
Warmed up ...Time used is 1500 cycles
Class 0:
Packet latency average = 20.4921
	minimum = 7
	maximum = 37
Network latency average = 20.4921
	minimum = 7
	maximum = 37
Slowest packet = 3918
Flit latency average = 20.3971
	minimum = 7
	maximum = 37
Slowest flit = 3918
Fragmentation average = 0
	minimum = 0
	maximum = 0
Injected packet rate average = 0.0085
	minimum = 0.002 (at node 14)
	maximum = 0.016 (at node 11)
Accepted packet rate average = 0.0085
	minimum = 0 (at node 0)
	maximum = 0.136 (at node 2)
Injected flit rate average = 0.0085
	minimum = 0.002 (at node 14)
	maximum = 0.016 (at node 11)
Accepted flit rate average= 0.0085
	minimum = 0 (at node 0)
	maximum = 0.136 (at node 2)
Injected packet length average = 1
Accepted packet length average = 1
Total in-flight flits = 5 (5 measured)
latency change    = 0.0719597
throughput change = 0.117647
Class 0:
Packet latency average = 20.6181
	minimum = 7
	maximum = 37
Network latency average = 20.6181
	minimum = 7
	maximum = 37
Slowest packet = 3918
Flit latency average = 20.5705
	minimum = 7
	maximum = 37
Slowest flit = 3918
Fragmentation average = 0
	minimum = 0
	maximum = 0
Injected packet rate average = 0.0091875
	minimum = 0.005 (at node 5)
	maximum = 0.014 (at node 15)
Accepted packet rate average = 0.0093125
	minimum = 0 (at node 0)
	maximum = 0.149 (at node 2)
Injected flit rate average = 0.0091875
	minimum = 0.005 (at node 5)
	maximum = 0.014 (at node 15)
Accepted flit rate average= 0.0093125
	minimum = 0 (at node 0)
	maximum = 0.149 (at node 2)
Injected packet length average = 1
Accepted packet length average = 1
Total in-flight flits = 3 (3 measured)
latency change    = 0.00611076
throughput change = 0.0872483
Class 0:
Packet latency average = 20.9361
	minimum = 7
	maximum = 37
Network latency average = 20.9361
	minimum = 7
	maximum = 37
Slowest packet = 3918
Flit latency average = 20.8973
	minimum = 7
	maximum = 37
Slowest flit = 3918
Fragmentation average = 0
	minimum = 0
	maximum = 0
Injected packet rate average = 0.00929167
	minimum = 0.00333333 (at node 5)
	maximum = 0.0133333 (at node 12)
Accepted packet rate average = 0.00933333
	minimum = 0 (at node 0)
	maximum = 0.149333 (at node 2)
Injected flit rate average = 0.00929167
	minimum = 0.00333333 (at node 5)
	maximum = 0.0133333 (at node 12)
Accepted flit rate average= 0.00933333
	minimum = 0 (at node 0)
	maximum = 0.149333 (at node 2)
Injected packet length average = 1
Accepted packet length average = 1
Total in-flight flits = 4 (4 measured)
latency change    = 0.0151899
throughput change = 0.00223214
Class 0:
Packet latency average = 20.7314
	minimum = 7
	maximum = 42
Network latency average = 20.7314
	minimum = 7
	maximum = 42
Slowest packet = 4181
Flit latency average = 20.707
	minimum = 7
	maximum = 42
Slowest flit = 4181
Fragmentation average = 0
	minimum = 0
	maximum = 0
Injected packet rate average = 0.00975
	minimum = 0.0045 (at node 5)
	maximum = 0.013 (at node 15)
Accepted packet rate average = 0.0098125
	minimum = 0 (at node 0)
	maximum = 0.157 (at node 2)
Injected flit rate average = 0.00975
	minimum = 0.0045 (at node 5)
	maximum = 0.013 (at node 15)
Accepted flit rate average= 0.0098125
	minimum = 0 (at node 0)
	maximum = 0.157 (at node 2)
Injected packet length average = 1
Accepted packet length average = 1
Total in-flight flits = 3 (3 measured)
latency change    = 0.00987302
throughput change = 0.0488323
Class 0:
Packet latency average = 20.4987
	minimum = 7
	maximum = 42
Network latency average = 20.4987
	minimum = 7
	maximum = 42
Slowest packet = 4181
Flit latency average = 20.4824
	minimum = 7
	maximum = 42
Slowest flit = 4181
Fragmentation average = 0
	minimum = 0
	maximum = 0
Injected packet rate average = 0.00985
	minimum = 0.0044 (at node 5)
	maximum = 0.0128 (at node 4)
Accepted packet rate average = 0.00995
	minimum = 0 (at node 0)
	maximum = 0.1592 (at node 2)
Injected flit rate average = 0.00985
	minimum = 0.0044 (at node 5)
	maximum = 0.0128 (at node 4)
Accepted flit rate average= 0.00995
	minimum = 0 (at node 0)
	maximum = 0.1592 (at node 2)
Injected packet length average = 1
Accepted packet length average = 1
Total in-flight flits = 1 (1 measured)
latency change    = 0.0113502
throughput change = 0.0138191
Draining all recorded packets ...
Draining remaining packets ...
Time taken is 4042 cycles
Class 0:
Packet latency average = 20.4615
	minimum = 7
	maximum = 36
Network latency average = 20.4615
	minimum = 7
	maximum = 36
Slowest packet = 4298
Flit latency average = 20.4615
	minimum = 7
	maximum = 36
Slowest flit = 4298
Fragmentation average = 0
	minimum = 0
	maximum = 0
Injected packet rate average = 0.009875
	minimum = 0.006 (at node 8)
	maximum = 0.016 (at node 10)
Accepted packet rate average = 0.00975
	minimum = 0 (at node 0)
	maximum = 0.156 (at node 2)
Injected flit rate average = 0.009875
	minimum = 0.006 (at node 8)
	maximum = 0.016 (at node 10)
Accepted flit rate average= 0.00975
	minimum = 0 (at node 0)
	maximum = 0.156 (at node 2)
Injected packet length average = 1
Accepted packet length average = 1
Total in-flight flits = 1 (0 measured)
latency change    = 1
throughput change = 1
Class 0:
Packet latency average = 20.4269
	minimum = 7
	maximum = 38
Network latency average = 20.4269
	minimum = 7
	maximum = 38
Slowest packet = 4411
Flit latency average = 20.4269
	minimum = 7
	maximum = 38
Slowest flit = 4411
Fragmentation average = 0
	minimum = 0
	maximum = 0
Injected packet rate average = 0.0108125
	minimum = 0.007 (at node 8)
	maximum = 0.015 (at node 15)
Accepted packet rate average = 0.0106875
	minimum = 0 (at node 0)
	maximum = 0.171 (at node 2)
Injected flit rate average = 0.0108125
	minimum = 0.007 (at node 8)
	maximum = 0.015 (at node 15)
Accepted flit rate average= 0.0106875
	minimum = 0 (at node 0)
	maximum = 0.171 (at node 2)
Injected packet length average = 1
Accepted packet length average = 1
Total in-flight flits = 2 (0 measured)
latency change    = 0.0016957
throughput change = 0.0877193
Class 0:
Packet latency average = 20.0625
	minimum = 7
	maximum = 35
Network latency average = 20.0625
	minimum = 7
	maximum = 35
Slowest packet = 4509
Flit latency average = 20.0625
	minimum = 7
	maximum = 35
Slowest flit = 4509
Fragmentation average = 0
	minimum = 0
	maximum = 0
Injected packet rate average = 0.010125
	minimum = 0.002 (at node 7)
	maximum = 0.016 (at node 2)
Accepted packet rate average = 0.01
	minimum = 0 (at node 0)
	maximum = 0.16 (at node 2)
Injected flit rate average = 0.010125
	minimum = 0.002 (at node 7)
	maximum = 0.016 (at node 2)
Accepted flit rate average= 0.01
	minimum = 0 (at node 0)
	maximum = 0.16 (at node 2)
Injected packet length average = 1
Accepted packet length average = 1
Total in-flight flits = 3 (0 measured)
latency change    = 0.0181633
throughput change = 0.06875
Warmed up ...Time used is 1500 cycles
Class 0:
Packet latency average = 20.1856
	minimum = 7
	maximum = 34
Network latency average = 20.1856
	minimum = 7
	maximum = 34
Slowest packet = 4574
Flit latency average = 20.34
	minimum = 7
	maximum = 34
Slowest flit = 4574
Fragmentation average = 0
	minimum = 0
	maximum = 0
Injected packet rate average = 0.012625
	minimum = 0.004 (at node 6)
	maximum = 0.024 (at node 15)
Accepted packet rate average = 0.0125
	minimum = 0 (at node 0)
	maximum = 0.2 (at node 2)
Injected flit rate average = 0.012625
	minimum = 0.004 (at node 6)
	maximum = 0.024 (at node 15)
Accepted flit rate average= 0.0125
	minimum = 0 (at node 0)
	maximum = 0.2 (at node 2)
Injected packet length average = 1
Accepted packet length average = 1
Total in-flight flits = 4 (4 measured)
latency change    = 0.00609678
throughput change = 0.2
Class 0:
Packet latency average = 19.7976
	minimum = 7
	maximum = 36
Network latency average = 19.7976
	minimum = 7
	maximum = 36
Slowest packet = 4639
Flit latency average = 19.8947
	minimum = 7
	maximum = 36
Slowest flit = 4639
Fragmentation average = 0
	minimum = 0
	maximum = 0
Injected packet rate average = 0.01075
	minimum = 0.004 (at node 12)
	maximum = 0.016 (at node 14)
Accepted packet rate average = 0.0106875
	minimum = 0 (at node 0)
	maximum = 0.171 (at node 2)
Injected flit rate average = 0.01075
	minimum = 0.004 (at node 12)
	maximum = 0.016 (at node 14)
Accepted flit rate average= 0.0106875
	minimum = 0 (at node 0)
	maximum = 0.171 (at node 2)
Injected packet length average = 1
Accepted packet length average = 1
Total in-flight flits = 4 (4 measured)
latency change    = 0.0195957
throughput change = 0.169591
Class 0:
Packet latency average = 19.992
	minimum = 7
	maximum = 38
Network latency average = 19.992
	minimum = 7
	maximum = 38
Slowest packet = 4777
Flit latency average = 20.0553
	minimum = 7
	maximum = 38
Slowest flit = 4777
Fragmentation average = 0
	minimum = 0
	maximum = 0
Injected packet rate average = 0.0105
	minimum = 0.00533333 (at node 5)
	maximum = 0.0146667 (at node 4)
Accepted packet rate average = 0.0105417
	minimum = 0 (at node 0)
	maximum = 0.168667 (at node 2)
Injected flit rate average = 0.0105
	minimum = 0.00533333 (at node 5)
	maximum = 0.0146667 (at node 4)
Accepted flit rate average= 0.0105417
	minimum = 0 (at node 0)
	maximum = 0.168667 (at node 2)
Injected packet length average = 1
Accepted packet length average = 1
Total in-flight flits = 2 (2 measured)
latency change    = 0.00972294
throughput change = 0.013834
Class 0:
Packet latency average = 19.8846
	minimum = 7
	maximum = 38
Network latency average = 19.8846
	minimum = 7
	maximum = 38
Slowest packet = 4777
Flit latency average = 19.9326
	minimum = 7
	maximum = 38
Slowest flit = 4777
Fragmentation average = 0
	minimum = 0
	maximum = 0
Injected packet rate average = 0.01075
	minimum = 0.007 (at node 13)
	maximum = 0.015 (at node 4)
Accepted packet rate average = 0.0106563
	minimum = 0 (at node 0)
	maximum = 0.1705 (at node 2)
Injected flit rate average = 0.01075
	minimum = 0.007 (at node 13)
	maximum = 0.015 (at node 4)
Accepted flit rate average= 0.0106563
	minimum = 0 (at node 0)
	maximum = 0.1705 (at node 2)
Injected packet length average = 1
Accepted packet length average = 1
Total in-flight flits = 6 (6 measured)
latency change    = 0.00540039
throughput change = 0.0107527
Class 0:
Packet latency average = 19.7689
	minimum = 7
	maximum = 38
Network latency average = 19.7689
	minimum = 7
	maximum = 38
Slowest packet = 4777
Flit latency average = 19.8092
	minimum = 7
	maximum = 38
Slowest flit = 4777
Fragmentation average = 0
	minimum = 0
	maximum = 0
Injected packet rate average = 0.01035
	minimum = 0.0072 (at node 5)
	maximum = 0.0136 (at node 14)
Accepted packet rate average = 0.01035
	minimum = 0 (at node 0)
	maximum = 0.1656 (at node 2)
Injected flit rate average = 0.01035
	minimum = 0.0072 (at node 5)
	maximum = 0.0136 (at node 14)
Accepted flit rate average= 0.01035
	minimum = 0 (at node 0)
	maximum = 0.1656 (at node 2)
Injected packet length average = 1
Accepted packet length average = 1
Total in-flight flits = 3 (3 measured)
latency change    = 0.00585562
throughput change = 0.0295894
Draining all recorded packets ...
Draining remaining packets ...
Time taken is 4037 cycles
Class 0:
Packet latency average = 20
	minimum = 7
	maximum = 33
Network latency average = 20
	minimum = 7
	maximum = 33
Slowest packet = 4968
Flit latency average = 20
	minimum = 7
	maximum = 33
Slowest flit = 4968
Fragmentation average = 0
	minimum = 0
	maximum = 0
Injected packet rate average = 0.010875
	minimum = 0.004 (at node 9)
	maximum = 0.02 (at node 12)
Accepted packet rate average = 0.010375
	minimum = 0 (at node 0)
	maximum = 0.166 (at node 2)
Injected flit rate average = 0.010875
	minimum = 0.004 (at node 9)
	maximum = 0.02 (at node 12)
Accepted flit rate average= 0.010375
	minimum = 0 (at node 0)
	maximum = 0.166 (at node 2)
Injected packet length average = 1
Accepted packet length average = 1
Total in-flight flits = 4 (0 measured)
latency change    = 1
throughput change = 1
Class 0:
Packet latency average = 20.2653
	minimum = 7
	maximum = 36
Network latency average = 20.2653
	minimum = 7
	maximum = 36
Slowest packet = 5049
Flit latency average = 20.2653
	minimum = 7
	maximum = 36
Slowest flit = 5049
Fragmentation average = 0
	minimum = 0
	maximum = 0
Injected packet rate average = 0.0095
	minimum = 0.005 (at node 7)
	maximum = 0.014 (at node 14)
Accepted packet rate average = 0.0091875
	minimum = 0 (at node 0)
	maximum = 0.147 (at node 2)
Injected flit rate average = 0.0095
	minimum = 0.005 (at node 7)
	maximum = 0.014 (at node 14)
Accepted flit rate average= 0.0091875
	minimum = 0 (at node 0)
	maximum = 0.147 (at node 2)
Injected packet length average = 1
Accepted packet length average = 1
Total in-flight flits = 5 (0 measured)
latency change    = 0.0130916
throughput change = 0.129252
Class 0:
Packet latency average = 21.1556
	minimum = 7
	maximum = 38
Network latency average = 21.1556
	minimum = 7
	maximum = 38
Slowest packet = 5120
Flit latency average = 21.1556
	minimum = 7
	maximum = 38
Slowest flit = 5120
Fragmentation average = 0
	minimum = 0
	maximum = 0
Injected packet rate average = 0.011125
	minimum = 0.002 (at node 0)
	maximum = 0.018 (at node 3)
Accepted packet rate average = 0.01125
	minimum = 0 (at node 0)
	maximum = 0.18 (at node 2)
Injected flit rate average = 0.011125
	minimum = 0.002 (at node 0)
	maximum = 0.018 (at node 3)
Accepted flit rate average= 0.01125
	minimum = 0 (at node 0)
	maximum = 0.18 (at node 2)
Injected packet length average = 1
Accepted packet length average = 1
Total in-flight flits = 4 (0 measured)
latency change    = 0.0420811
throughput change = 0.183333
Warmed up ...Time used is 1500 cycles
Class 0:
Packet latency average = 20.0235
	minimum = 7
	maximum = 38
Network latency average = 20.0235
	minimum = 7
	maximum = 38
Slowest packet = 5206
Flit latency average = 20.0562
	minimum = 7
	maximum = 38
Slowest flit = 5206
Fragmentation average = 0
	minimum = 0
	maximum = 0
Injected packet rate average = 0.010875
	minimum = 0.004 (at node 0)
	maximum = 0.02 (at node 15)
Accepted packet rate average = 0.011125
	minimum = 0 (at node 0)
	maximum = 0.178 (at node 2)
Injected flit rate average = 0.010875
	minimum = 0.004 (at node 0)
	maximum = 0.02 (at node 15)
Accepted flit rate average= 0.011125
	minimum = 0 (at node 0)
	maximum = 0.178 (at node 2)
Injected packet length average = 1
Accepted packet length average = 1
Total in-flight flits = 2 (2 measured)
latency change    = 0.0565348
throughput change = 0.011236
Class 0:
Packet latency average = 19.7349
	minimum = 7
	maximum = 38
Network latency average = 19.7349
	minimum = 7
	maximum = 38
Slowest packet = 5206
Flit latency average = 19.7588
	minimum = 7
	maximum = 38
Slowest flit = 5206
Fragmentation average = 0
	minimum = 0
	maximum = 0
Injected packet rate average = 0.0105
	minimum = 0.003 (at node 0)
	maximum = 0.016 (at node 6)
Accepted packet rate average = 0.010625
	minimum = 0 (at node 0)
	maximum = 0.17 (at node 2)
Injected flit rate average = 0.0105
	minimum = 0.003 (at node 0)
	maximum = 0.016 (at node 6)
Accepted flit rate average= 0.010625
	minimum = 0 (at node 0)
	maximum = 0.17 (at node 2)
Injected packet length average = 1
Accepted packet length average = 1
Total in-flight flits = 2 (2 measured)
latency change    = 0.0146233
throughput change = 0.0470588
Class 0:
Packet latency average = 19.7308
	minimum = 7
	maximum = 46
Network latency average = 19.7308
	minimum = 7
	maximum = 46
Slowest packet = 5376
Flit latency average = 19.7479
	minimum = 7
	maximum = 46
Slowest flit = 5376
Fragmentation average = 0
	minimum = 0
	maximum = 0
Injected packet rate average = 0.00983333
	minimum = 0.006 (at node 9)
	maximum = 0.0146667 (at node 6)
Accepted packet rate average = 0.00991667
	minimum = 0 (at node 0)
	maximum = 0.158667 (at node 2)
Injected flit rate average = 0.00983333
	minimum = 0.006 (at node 9)
	maximum = 0.0146667 (at node 6)
Accepted flit rate average= 0.00991667
	minimum = 0 (at node 0)
	maximum = 0.158667 (at node 2)
Injected packet length average = 1
Accepted packet length average = 1
Total in-flight flits = 2 (2 measured)
latency change    = 0.000211372
throughput change = 0.0714286
Class 0:
Packet latency average = 19.4082
	minimum = 7
	maximum = 46
Network latency average = 19.4082
	minimum = 7
	maximum = 46
Slowest packet = 5376
Flit latency average = 19.425
	minimum = 7
	maximum = 46
Slowest flit = 5376
Fragmentation average = 0
	minimum = 0
	maximum = 0
Injected packet rate average = 0.0099375
	minimum = 0.0065 (at node 14)
	maximum = 0.0155 (at node 11)
Accepted packet rate average = 0.01
	minimum = 0 (at node 0)
	maximum = 0.16 (at node 2)
Injected flit rate average = 0.0099375
	minimum = 0.0065 (at node 14)
	maximum = 0.0155 (at node 11)
Accepted flit rate average= 0.01
	minimum = 0 (at node 0)
	maximum = 0.16 (at node 2)
Injected packet length average = 1
Accepted packet length average = 1
Total in-flight flits = 2 (2 measured)
latency change    = 0.0166188
throughput change = 0.00833333
Class 0:
Packet latency average = 19.4304
	minimum = 7
	maximum = 46
Network latency average = 19.4304
	minimum = 7
	maximum = 46
Slowest packet = 5376
Flit latency average = 19.4439
	minimum = 7
	maximum = 46
Slowest flit = 5376
Fragmentation average = 0
	minimum = 0
	maximum = 0
Injected packet rate average = 0.009775
	minimum = 0.0072 (at node 0)
	maximum = 0.0148 (at node 11)
Accepted packet rate average = 0.0098
	minimum = 0 (at node 0)
	maximum = 0.1568 (at node 2)
Injected flit rate average = 0.009775
	minimum = 0.0072 (at node 0)
	maximum = 0.0148 (at node 11)
Accepted flit rate average= 0.0098
	minimum = 0 (at node 0)
	maximum = 0.1568 (at node 2)
Injected packet length average = 1
Accepted packet length average = 1
Total in-flight flits = 3 (3 measured)
latency change    = 0.00114174
throughput change = 0.0204082
Class 0:
Packet latency average = 19.8284
	minimum = 7
	maximum = 53
Network latency average = 19.8284
	minimum = 7
	maximum = 53
Slowest packet = 5604
Flit latency average = 19.8361
	minimum = 7
	maximum = 53
Slowest flit = 5604
Fragmentation average = 0
	minimum = 0
	maximum = 0
Injected packet rate average = 0.00983333
	minimum = 0.00733333 (at node 12)
	maximum = 0.015 (at node 7)
Accepted packet rate average = 0.00991667
	minimum = 0 (at node 0)
	maximum = 0.158667 (at node 2)
Injected flit rate average = 0.00983333
	minimum = 0.00733333 (at node 12)
	maximum = 0.015 (at node 7)
Accepted flit rate average= 0.00991667
	minimum = 0 (at node 0)
	maximum = 0.158667 (at node 2)
Injected packet length average = 1
Accepted packet length average = 1
Total in-flight flits = 0 (0 measured)
latency change    = 0.0200711
throughput change = 0.0117647
Draining all recorded packets ...
Draining remaining packets ...
Time taken is 4504 cycles
Class 0:
Packet latency average = 19.2639
	minimum = 7
	maximum = 37
Network latency average = 19.2639
	minimum = 7
	maximum = 37
Slowest packet = 5682
Flit latency average = 19.2639
	minimum = 7
	maximum = 37
Slowest flit = 5682
Fragmentation average = 0
	minimum = 0
	maximum = 0
Injected packet rate average = 0.00975
	minimum = 0.002 (at node 0)
	maximum = 0.016 (at node 1)
Accepted packet rate average = 0.009
	minimum = 0 (at node 0)
	maximum = 0.144 (at node 2)
Injected flit rate average = 0.00975
	minimum = 0.002 (at node 0)
	maximum = 0.016 (at node 1)
Accepted flit rate average= 0.009
	minimum = 0 (at node 0)
	maximum = 0.144 (at node 2)
Injected packet length average = 1
Accepted packet length average = 1
Total in-flight flits = 6 (0 measured)
latency change    = 1
throughput change = 1
Class 0:
Packet latency average = 19.38
	minimum = 7
	maximum = 38
Network latency average = 19.38
	minimum = 7
	maximum = 38
Slowest packet = 5773
Flit latency average = 19.38
	minimum = 7
	maximum = 38
Slowest flit = 5773
Fragmentation average = 0
	minimum = 0
	maximum = 0
Injected packet rate average = 0.0094375
	minimum = 0.006 (at node 0)
	maximum = 0.014 (at node 3)
Accepted packet rate average = 0.009375
	minimum = 0 (at node 0)
	maximum = 0.15 (at node 2)
Injected flit rate average = 0.0094375
	minimum = 0.006 (at node 0)
	maximum = 0.014 (at node 3)
Accepted flit rate average= 0.009375
	minimum = 0 (at node 0)
	maximum = 0.15 (at node 2)
Injected packet length average = 1
Accepted packet length average = 1
Total in-flight flits = 1 (0 measured)
latency change    = 0.00599129
throughput change = 0.04
Class 0:
Packet latency average = 20.8592
	minimum = 7
	maximum = 32
Network latency average = 20.8592
	minimum = 7
	maximum = 32
Slowest packet = 5834
Flit latency average = 20.8592
	minimum = 7
	maximum = 32
Slowest flit = 5834
Fragmentation average = 0
	minimum = 0
	maximum = 0
Injected packet rate average = 0.009
	minimum = 0 (at node 6)
	maximum = 0.016 (at node 15)
Accepted packet rate average = 0.008875
	minimum = 0 (at node 0)
	maximum = 0.142 (at node 2)
Injected flit rate average = 0.009
	minimum = 0 (at node 6)
	maximum = 0.016 (at node 15)
Accepted flit rate average= 0.008875
	minimum = 0 (at node 0)
	maximum = 0.142 (at node 2)
Injected packet length average = 1
Accepted packet length average = 1
Total in-flight flits = 2 (0 measured)
latency change    = 0.0709115
throughput change = 0.056338
Warmed up ...Time used is 1500 cycles
Class 0:
Packet latency average = 18.5823
	minimum = 7
	maximum = 40
Network latency average = 18.5823
	minimum = 7
	maximum = 40
Slowest packet = 5940
Flit latency average = 18.6049
	minimum = 7
	maximum = 40
Slowest flit = 5940
Fragmentation average = 0
	minimum = 0
	maximum = 0
Injected packet rate average = 0.010125
	minimum = 0.002 (at node 15)
	maximum = 0.02 (at node 7)
Accepted packet rate average = 0.010125
	minimum = 0 (at node 0)
	maximum = 0.162 (at node 2)
Injected flit rate average = 0.010125
	minimum = 0.002 (at node 15)
	maximum = 0.02 (at node 7)
Accepted flit rate average= 0.010125
	minimum = 0 (at node 0)
	maximum = 0.162 (at node 2)
Injected packet length average = 1
Accepted packet length average = 1
Total in-flight flits = 2 (2 measured)
latency change    = 0.122529
throughput change = 0.123457
Class 0:
Packet latency average = 19.4204
	minimum = 7
	maximum = 40
Network latency average = 19.4204
	minimum = 7
	maximum = 40
Slowest packet = 5940
Flit latency average = 19.4214
	minimum = 7
	maximum = 40
Slowest flit = 5940
Fragmentation average = 0
	minimum = 0
	maximum = 0
Injected packet rate average = 0.0100625
	minimum = 0.005 (at node 11)
	maximum = 0.017 (at node 7)
Accepted packet rate average = 0.0099375
	minimum = 0 (at node 0)
	maximum = 0.159 (at node 2)
Injected flit rate average = 0.0100625
	minimum = 0.005 (at node 11)
	maximum = 0.017 (at node 7)
Accepted flit rate average= 0.0099375
	minimum = 0 (at node 0)
	maximum = 0.159 (at node 2)
Injected packet length average = 1
Accepted packet length average = 1
Total in-flight flits = 4 (4 measured)
latency change    = 0.0431559
throughput change = 0.0188679
Class 0:
Packet latency average = 19.6395
	minimum = 7
	maximum = 40
Network latency average = 19.6395
	minimum = 7
	maximum = 40
Slowest packet = 5940
Flit latency average = 19.6383
	minimum = 7
	maximum = 40
Slowest flit = 5940
Fragmentation average = 0
	minimum = 0
	maximum = 0
Injected packet rate average = 0.00979167
	minimum = 0.00666667 (at node 11)
	maximum = 0.0153333 (at node 7)
Accepted packet rate average = 0.00979167
	minimum = 0 (at node 0)
	maximum = 0.156667 (at node 2)
Injected flit rate average = 0.00979167
	minimum = 0.00666667 (at node 11)
	maximum = 0.0153333 (at node 7)
Accepted flit rate average= 0.00979167
	minimum = 0 (at node 0)
	maximum = 0.156667 (at node 2)
Injected packet length average = 1
Accepted packet length average = 1
Total in-flight flits = 2 (2 measured)
latency change    = 0.0111562
throughput change = 0.0148936
Class 0:
Packet latency average = 19.4554
	minimum = 7
	maximum = 40
Network latency average = 19.4554
	minimum = 7
	maximum = 40
Slowest packet = 5940
Flit latency average = 19.4557
	minimum = 7
	maximum = 40
Slowest flit = 5940
Fragmentation average = 0
	minimum = 0
	maximum = 0
Injected packet rate average = 0.0095
	minimum = 0.006 (at node 12)
	maximum = 0.013 (at node 0)
Accepted packet rate average = 0.00953125
	minimum = 0 (at node 0)
	maximum = 0.1525 (at node 2)
Injected flit rate average = 0.0095
	minimum = 0.006 (at node 12)
	maximum = 0.013 (at node 0)
Accepted flit rate average= 0.00953125
	minimum = 0 (at node 0)
	maximum = 0.1525 (at node 2)
Injected packet length average = 1
Accepted packet length average = 1
Total in-flight flits = 1 (1 measured)
latency change    = 0.00945953
throughput change = 0.0273224
Draining all recorded packets ...
Draining remaining packets ...
Time taken is 3514 cycles
Class 0:
Packet latency average = 19.1061
	minimum = 7
	maximum = 32
Network latency average = 19.1061
	minimum = 7
	maximum = 32
Slowest packet = 6202
Flit latency average = 19.1061
	minimum = 7
	maximum = 32
Slowest flit = 6202
Fragmentation average = 0
	minimum = 0
	maximum = 0
Injected packet rate average = 0.008625
	minimum = 0 (at node 15)
	maximum = 0.016 (at node 0)
Accepted packet rate average = 0.00825
	minimum = 0 (at node 0)
	maximum = 0.132 (at node 2)
Injected flit rate average = 0.008625
	minimum = 0 (at node 15)
	maximum = 0.016 (at node 0)
Accepted flit rate average= 0.00825
	minimum = 0 (at node 0)
	maximum = 0.132 (at node 2)
Injected packet length average = 1
Accepted packet length average = 1
Total in-flight flits = 3 (0 measured)
latency change    = 1
throughput change = 1
Class 0:
Packet latency average = 19.8052
	minimum = 7
	maximum = 38
Network latency average = 19.8052
	minimum = 7
	maximum = 38
Slowest packet = 6271
Flit latency average = 19.8052
	minimum = 7
	maximum = 38
Slowest flit = 6271
Fragmentation average = 0
	minimum = 0
	maximum = 0
Injected packet rate average = 0.01
	minimum = 0.003 (at node 15)
	maximum = 0.018 (at node 0)
Accepted packet rate average = 0.009625
	minimum = 0 (at node 0)
	maximum = 0.154 (at node 2)
Injected flit rate average = 0.01
	minimum = 0.003 (at node 15)
	maximum = 0.018 (at node 0)
Accepted flit rate average= 0.009625
	minimum = 0 (at node 0)
	maximum = 0.154 (at node 2)
Injected packet length average = 1
Accepted packet length average = 1
Total in-flight flits = 6 (0 measured)
latency change    = 0.0353005
throughput change = 0.142857
Class 0:
Packet latency average = 20.7125
	minimum = 7
	maximum = 46
Network latency average = 20.7125
	minimum = 7
	maximum = 46
Slowest packet = 6384
Flit latency average = 20.7125
	minimum = 7
	maximum = 46
Slowest flit = 6384
Fragmentation average = 0
	minimum = 0
	maximum = 0
Injected packet rate average = 0.009375
	minimum = 0 (at node 13)
	maximum = 0.018 (at node 10)
Accepted packet rate average = 0.01
	minimum = 0 (at node 0)
	maximum = 0.16 (at node 2)
Injected flit rate average = 0.009375
	minimum = 0 (at node 13)
	maximum = 0.018 (at node 10)
Accepted flit rate average= 0.01
	minimum = 0 (at node 0)
	maximum = 0.16 (at node 2)
Injected packet length average = 1
Accepted packet length average = 1
Total in-flight flits = 1 (0 measured)
latency change    = 0.0438047
throughput change = 0.0375
Warmed up ...Time used is 1500 cycles
Class 0:
Packet latency average = 20.4328
	minimum = 7
	maximum = 34
Network latency average = 20.4328
	minimum = 7
	maximum = 34
Slowest packet = 6459
Flit latency average = 20.5294
	minimum = 7
	maximum = 34
Slowest flit = 6459
Fragmentation average = 0
	minimum = 0
	maximum = 0
Injected packet rate average = 0.00875
	minimum = 0.002 (at node 2)
	maximum = 0.018 (at node 13)
Accepted packet rate average = 0.0085
	minimum = 0 (at node 0)
	maximum = 0.136 (at node 2)
Injected flit rate average = 0.00875
	minimum = 0.002 (at node 2)
	maximum = 0.018 (at node 13)
Accepted flit rate average= 0.0085
	minimum = 0 (at node 0)
	maximum = 0.136 (at node 2)
Injected packet length average = 1
Accepted packet length average = 1
Total in-flight flits = 3 (3 measured)
latency change    = 0.013687
throughput change = 0.176471
Class 0:
Packet latency average = 19.9054
	minimum = 7
	maximum = 34
Network latency average = 19.9054
	minimum = 7
	maximum = 34
Slowest packet = 6459
Flit latency average = 19.953
	minimum = 7
	maximum = 34
Slowest flit = 6459
Fragmentation average = 0
	minimum = 0
	maximum = 0
Injected packet rate average = 0.0093125
	minimum = 0.006 (at node 2)
	maximum = 0.012 (at node 3)
Accepted packet rate average = 0.0093125
	minimum = 0 (at node 0)
	maximum = 0.149 (at node 2)
Injected flit rate average = 0.0093125
	minimum = 0.006 (at node 2)
	maximum = 0.012 (at node 3)
Accepted flit rate average= 0.0093125
	minimum = 0 (at node 0)
	maximum = 0.149 (at node 2)
Injected packet length average = 1
Accepted packet length average = 1
Total in-flight flits = 1 (1 measured)
latency change    = 0.0264968
throughput change = 0.0872483
Class 0:
Packet latency average = 20.2186
	minimum = 7
	maximum = 34
Network latency average = 20.2186
	minimum = 7
	maximum = 34
Slowest packet = 6459
Flit latency average = 20.25
	minimum = 7
	maximum = 34
Slowest flit = 6459
Fragmentation average = 0
	minimum = 0
	maximum = 0
Injected packet rate average = 0.00904167
	minimum = 0.00666667 (at node 2)
	maximum = 0.0113333 (at node 8)
Accepted packet rate average = 0.009
	minimum = 0 (at node 0)
	maximum = 0.144 (at node 2)
Injected flit rate average = 0.00904167
	minimum = 0.00666667 (at node 2)
	maximum = 0.0113333 (at node 8)
Accepted flit rate average= 0.009
	minimum = 0 (at node 0)
	maximum = 0.144 (at node 2)
Injected packet length average = 1
Accepted packet length average = 1
Total in-flight flits = 2 (2 measured)
latency change    = 0.0154906
throughput change = 0.0347222
Class 0:
Packet latency average = 20.2343
	minimum = 7
	maximum = 48
Network latency average = 20.2343
	minimum = 7
	maximum = 48
Slowest packet = 6715
Flit latency average = 20.2566
	minimum = 7
	maximum = 48
Slowest flit = 6715
Fragmentation average = 0
	minimum = 0
	maximum = 0
Injected packet rate average = 0.00959375
	minimum = 0.007 (at node 6)
	maximum = 0.0115 (at node 3)
Accepted packet rate average = 0.0095
	minimum = 0 (at node 0)
	maximum = 0.152 (at node 2)
Injected flit rate average = 0.00959375
	minimum = 0.007 (at node 6)
	maximum = 0.0115 (at node 3)
Accepted flit rate average= 0.0095
	minimum = 0 (at node 0)
	maximum = 0.152 (at node 2)
Injected packet length average = 1
Accepted packet length average = 1
Total in-flight flits = 4 (4 measured)
latency change    = 0.000776837
throughput change = 0.0526316
Class 0:
Packet latency average = 20.3029
	minimum = 7
	maximum = 48
Network latency average = 20.3029
	minimum = 7
	maximum = 48
Slowest packet = 6715
Flit latency average = 20.3203
	minimum = 7
	maximum = 48
Slowest flit = 6715
Fragmentation average = 0
	minimum = 0
	maximum = 0
Injected packet rate average = 0.0096
	minimum = 0.0076 (at node 12)
	maximum = 0.012 (at node 8)
Accepted packet rate average = 0.0096
	minimum = 0 (at node 0)
	maximum = 0.1536 (at node 2)
Injected flit rate average = 0.0096
	minimum = 0.0076 (at node 12)
	maximum = 0.012 (at node 8)
Accepted flit rate average= 0.0096
	minimum = 0 (at node 0)
	maximum = 0.1536 (at node 2)
Injected packet length average = 1
Accepted packet length average = 1
Total in-flight flits = 1 (1 measured)
latency change    = 0.0033763
throughput change = 0.0104167
Class 0:
Packet latency average = 20.1029
	minimum = 7
	maximum = 48
Network latency average = 20.1029
	minimum = 7
	maximum = 48
Slowest packet = 6715
Flit latency average = 20.1183
	minimum = 7
	maximum = 48
Slowest flit = 6715
Fragmentation average = 0
	minimum = 0
	maximum = 0
Injected packet rate average = 0.00939583
	minimum = 0.007 (at node 12)
	maximum = 0.0116667 (at node 8)
Accepted packet rate average = 0.00933333
	minimum = 0 (at node 0)
	maximum = 0.149333 (at node 2)
Injected flit rate average = 0.00939583
	minimum = 0.007 (at node 12)
	maximum = 0.0116667 (at node 8)
Accepted flit rate average= 0.00933333
	minimum = 0 (at node 0)
	maximum = 0.149333 (at node 2)
Injected packet length average = 1
Accepted packet length average = 1
Total in-flight flits = 4 (4 measured)
latency change    = 0.00994701
throughput change = 0.0285714
Class 0:
Packet latency average = 20.3091
	minimum = 7
	maximum = 48
Network latency average = 20.3091
	minimum = 7
	maximum = 48
Slowest packet = 6715
Flit latency average = 20.3216
	minimum = 7
	maximum = 48
Slowest flit = 6715
Fragmentation average = 0
	minimum = 0
	maximum = 0
Injected packet rate average = 0.009625
	minimum = 0.00771429 (at node 12)
	maximum = 0.0125714 (at node 4)
Accepted packet rate average = 0.00960714
	minimum = 0 (at node 0)
	maximum = 0.153714 (at node 2)
Injected flit rate average = 0.009625
	minimum = 0.00771429 (at node 12)
	maximum = 0.0125714 (at node 4)
Accepted flit rate average= 0.00960714
	minimum = 0 (at node 0)
	maximum = 0.153714 (at node 2)
Injected packet length average = 1
Accepted packet length average = 1
Total in-flight flits = 2 (2 measured)
latency change    = 0.0101539
throughput change = 0.0285006
Draining all recorded packets ...
Draining remaining packets ...
Time taken is 5045 cycles
Class 0:
Packet latency average = 20.4675
	minimum = 7
	maximum = 40
Network latency average = 20.4675
	minimum = 7
	maximum = 40
Slowest packet = 7039
Flit latency average = 20.4675
	minimum = 7
	maximum = 40
Slowest flit = 7039
Fragmentation average = 0
	minimum = 0
	maximum = 0
Injected packet rate average = 0.01
	minimum = 0.006 (at node 0)
	maximum = 0.016 (at node 4)
Accepted packet rate average = 0.009625
	minimum = 0 (at node 0)
	maximum = 0.154 (at node 2)
Injected flit rate average = 0.01
	minimum = 0.006 (at node 0)
	maximum = 0.016 (at node 4)
Accepted flit rate average= 0.009625
	minimum = 0 (at node 0)
	maximum = 0.154 (at node 2)
Injected packet length average = 1
Accepted packet length average = 1
Total in-flight flits = 3 (0 measured)
latency change    = 1
throughput change = 1
Class 0:
Packet latency average = 20.3311
	minimum = 7
	maximum = 40
Network latency average = 20.3311
	minimum = 7
	maximum = 40
Slowest packet = 7039
Flit latency average = 20.3311
	minimum = 7
	maximum = 40
Slowest flit = 7039
Fragmentation average = 0
	minimum = 0
	maximum = 0
Injected packet rate average = 0.0095625
	minimum = 0.008 (at node 0)
	maximum = 0.014 (at node 8)
Accepted packet rate average = 0.00925
	minimum = 0 (at node 0)
	maximum = 0.148 (at node 2)
Injected flit rate average = 0.0095625
	minimum = 0.008 (at node 0)
	maximum = 0.014 (at node 8)
Accepted flit rate average= 0.00925
	minimum = 0 (at node 0)
	maximum = 0.148 (at node 2)
Injected packet length average = 1
Accepted packet length average = 1
Total in-flight flits = 5 (0 measured)
latency change    = 0.00671147
throughput change = 0.0405405
Class 0:
Packet latency average = 20.9775
	minimum = 7
	maximum = 45
Network latency average = 20.9775
	minimum = 7
	maximum = 45
Slowest packet = 7170
Flit latency average = 20.9775
	minimum = 7
	maximum = 45
Slowest flit = 7170
Fragmentation average = 0
	minimum = 0
	maximum = 0
Injected packet rate average = 0.011
	minimum = 0.004 (at node 6)
	maximum = 0.022 (at node 15)
Accepted packet rate average = 0.011125
	minimum = 0 (at node 0)
	maximum = 0.178 (at node 2)
Injected flit rate average = 0.011
	minimum = 0.004 (at node 6)
	maximum = 0.022 (at node 15)
Accepted flit rate average= 0.011125
	minimum = 0 (at node 0)
	maximum = 0.178 (at node 2)
Injected packet length average = 1
Accepted packet length average = 1
Total in-flight flits = 4 (0 measured)
latency change    = 0.0308162
throughput change = 0.168539
Warmed up ...Time used is 1500 cycles
Class 0:
Packet latency average = 18.5417
	minimum = 7
	maximum = 32
Network latency average = 18.5417
	minimum = 7
	maximum = 32
Slowest packet = 7222
Flit latency average = 18.8684
	minimum = 7
	maximum = 32
Slowest flit = 7222
Fragmentation average = 0
	minimum = 0
	maximum = 0
Injected packet rate average = 0.00975
	minimum = 0.002 (at node 15)
	maximum = 0.018 (at node 3)
Accepted packet rate average = 0.0095
	minimum = 0 (at node 0)
	maximum = 0.152 (at node 2)
Injected flit rate average = 0.00975
	minimum = 0.002 (at node 15)
	maximum = 0.018 (at node 3)
Accepted flit rate average= 0.0095
	minimum = 0 (at node 0)
	maximum = 0.152 (at node 2)
Injected packet length average = 1
Accepted packet length average = 1
Total in-flight flits = 6 (6 measured)
latency change    = 0.131372
throughput change = 0.171053
Class 0:
Packet latency average = 19.4248
	minimum = 7
	maximum = 32
Network latency average = 19.4248
	minimum = 7
	maximum = 32
Slowest packet = 7222
Flit latency average = 19.5605
	minimum = 7
	maximum = 32
Slowest flit = 7222
Fragmentation average = 0
	minimum = 0
	maximum = 0
Injected packet rate average = 0.00975
	minimum = 0.005 (at node 13)
	maximum = 0.014 (at node 1)
Accepted packet rate average = 0.0098125
	minimum = 0 (at node 0)
	maximum = 0.157 (at node 2)
Injected flit rate average = 0.00975
	minimum = 0.005 (at node 13)
	maximum = 0.014 (at node 1)
Accepted flit rate average= 0.0098125
	minimum = 0 (at node 0)
	maximum = 0.157 (at node 2)
Injected packet length average = 1
Accepted packet length average = 1
Total in-flight flits = 3 (3 measured)
latency change    = 0.045466
throughput change = 0.0318471
Class 0:
Packet latency average = 19.6844
	minimum = 7
	maximum = 33
Network latency average = 19.6844
	minimum = 7
	maximum = 33
Slowest packet = 7404
Flit latency average = 19.7661
	minimum = 7
	maximum = 33
Slowest flit = 7404
Fragmentation average = 0
	minimum = 0
	maximum = 0
Injected packet rate average = 0.01025
	minimum = 0.006 (at node 10)
	maximum = 0.0146667 (at node 3)
Accepted packet rate average = 0.0103333
	minimum = 0 (at node 0)
	maximum = 0.165333 (at node 2)
Injected flit rate average = 0.01025
	minimum = 0.006 (at node 10)
	maximum = 0.0146667 (at node 3)
Accepted flit rate average= 0.0103333
	minimum = 0 (at node 0)
	maximum = 0.165333 (at node 2)
Injected packet length average = 1
Accepted packet length average = 1
Total in-flight flits = 2 (2 measured)
latency change    = 0.0131876
throughput change = 0.0504032
Class 0:
Packet latency average = 19.9483
	minimum = 7
	maximum = 37
Network latency average = 19.9483
	minimum = 7
	maximum = 37
Slowest packet = 7537
Flit latency average = 20.006
	minimum = 7
	maximum = 37
Slowest flit = 7537
Fragmentation average = 0
	minimum = 0
	maximum = 0
Injected packet rate average = 0.0104375
	minimum = 0.007 (at node 13)
	maximum = 0.0135 (at node 4)
Accepted packet rate average = 0.0104063
	minimum = 0 (at node 0)
	maximum = 0.1665 (at node 2)
Injected flit rate average = 0.0104375
	minimum = 0.007 (at node 13)
	maximum = 0.0135 (at node 4)
Accepted flit rate average= 0.0104063
	minimum = 0 (at node 0)
	maximum = 0.1665 (at node 2)
[...]
Accepted packet length average = 1
Total in-flight flits = 4 (0 measured)
latency change    = 0.000537903
throughput change = 0.128205
Class 0:
Packet latency average = 21.507
	minimum = 7
	maximum = 37
Network latency average = 21.507
	minimum = 7
	maximum = 37
Slowest packet = 30855
Flit latency average = 21.507
	minimum = 7
	maximum = 37
Slowest flit = 30855
Fragmentation average = 0
	minimum = 0
	maximum = 0
Injected packet rate average = 0.00875
	minimum = 0.002 (at node 1)
	maximum = 0.016 (at node 11)
Accepted packet rate average = 0.008875
	minimum = 0 (at node 0)
	maximum = 0.142 (at node 2)
Injected flit rate average = 0.00875
	minimum = 0.002 (at node 1)
	maximum = 0.016 (at node 11)
Accepted flit rate average= 0.008875
	minimum = 0 (at node 0)
	maximum = 0.142 (at node 2)
Injected packet length average = 1
Accepted packet length average = 1
Total in-flight flits = 3 (0 measured)
latency change    = 0.0873592
throughput change = 0.0985915
Warmed up ...Time used is 1500 cycles
Class 0:
Packet latency average = 20.4722
	minimum = 7
	maximum = 33
Network latency average = 20.4722
	minimum = 7
	maximum = 33
Slowest packet = 30915
Flit latency average = 20.6
	minimum = 7
	maximum = 33
Slowest flit = 30915
Fragmentation average = 0
	minimum = 0
	maximum = 0
Injected packet rate average = 0.009375
	minimum = 0.002 (at node 3)
	maximum = 0.024 (at node 13)
Accepted packet rate average = 0.009375
	minimum = 0 (at node 0)
	maximum = 0.15 (at node 2)
Injected flit rate average = 0.009375
	minimum = 0.002 (at node 3)
	maximum = 0.024 (at node 13)
Accepted flit rate average= 0.009375
	minimum = 0 (at node 0)
	maximum = 0.15 (at node 2)
Injected packet length average = 1
Accepted packet length average = 1
Total in-flight flits = 3 (3 measured)
latency change    = 0.0505475
throughput change = 0.0533333
Class 0:
Packet latency average = 19.9085
	minimum = 7
	maximum = 35
Network latency average = 19.9085
	minimum = 7
	maximum = 35
Slowest packet = 30960
Flit latency average = 19.9862
	minimum = 7
	maximum = 35
Slowest flit = 30960
Fragmentation average = 0
	minimum = 0
	maximum = 0
Injected packet rate average = 0.009
	minimum = 0.005 (at node 4)
	maximum = 0.021 (at node 13)
Accepted packet rate average = 0.0090625
	minimum = 0 (at node 0)
	maximum = 0.145 (at node 2)
Injected flit rate average = 0.009
	minimum = 0.005 (at node 4)
	maximum = 0.021 (at node 13)
Accepted flit rate average= 0.0090625
	minimum = 0 (at node 0)
	maximum = 0.145 (at node 2)
Injected packet length average = 1
Accepted packet length average = 1
Total in-flight flits = 2 (2 measured)
latency change    = 0.0283182
throughput change = 0.0344828
Class 0:
Packet latency average = 19.8318
	minimum = 7
	maximum = 45
Network latency average = 19.8318
	minimum = 7
	maximum = 45
Slowest packet = 31027
Flit latency average = 19.8834
	minimum = 7
	maximum = 45
Slowest flit = 31027
Fragmentation average = 0
	minimum = 0
	maximum = 0
Injected packet rate average = 0.00945833
	minimum = 0.006 (at node 4)
	maximum = 0.0166667 (at node 13)
Accepted packet rate average = 0.00929167
	minimum = 0 (at node 0)
	maximum = 0.148667 (at node 2)
Injected flit rate average = 0.00945833
	minimum = 0.006 (at node 4)
	maximum = 0.0166667 (at node 13)
Accepted flit rate average= 0.00929167
	minimum = 0 (at node 0)
	maximum = 0.148667 (at node 2)
Injected packet length average = 1
Accepted packet length average = 1
Total in-flight flits = 7 (7 measured)
latency change    = 0.00386412
throughput change = 0.0246637
Class 0:
Packet latency average = 19.9175
	minimum = 7
	maximum = 48
Network latency average = 19.9175
	minimum = 7
	maximum = 48
Slowest packet = 31105
Flit latency average = 19.9528
	minimum = 7
	maximum = 48
Slowest flit = 31105
Fragmentation average = 0
	minimum = 0
	maximum = 0
Injected packet rate average = 0.009875
	minimum = 0.0065 (at node 4)
	maximum = 0.0155 (at node 13)
Accepted packet rate average = 0.0099375
	minimum = 0 (at node 0)
	maximum = 0.159 (at node 2)
Injected flit rate average = 0.009875
	minimum = 0.0065 (at node 4)
	maximum = 0.0155 (at node 13)
Accepted flit rate average= 0.0099375
	minimum = 0 (at node 0)
	maximum = 0.159 (at node 2)
Injected packet length average = 1
Accepted packet length average = 1
Total in-flight flits = 1 (1 measured)
latency change    = 0.00429985
throughput change = 0.0649895
Class 0:
Packet latency average = 20.1418
	minimum = 7
	maximum = 48
Network latency average = 20.1418
	minimum = 7
	maximum = 48
Slowest packet = 31105
Flit latency average = 20.1675
	minimum = 7
	maximum = 48
Slowest flit = 31105
Fragmentation average = 0
	minimum = 0
	maximum = 0
Injected packet rate average = 0.01025
	minimum = 0.0068 (at node 12)
	maximum = 0.014 (at node 1)
Accepted packet rate average = 0.0103
	minimum = 0 (at node 0)
	maximum = 0.1648 (at node 2)
Injected flit rate average = 0.01025
	minimum = 0.0068 (at node 12)
	maximum = 0.014 (at node 1)
Accepted flit rate average= 0.0103
	minimum = 0 (at node 0)
	maximum = 0.1648 (at node 2)
Injected packet length average = 1
Accepted packet length average = 1
Total in-flight flits = 1 (1 measured)
latency change    = 0.0111385
throughput change = 0.0351942
Class 0:
Packet latency average = 20.104
	minimum = 7
	maximum = 48
Network latency average = 20.104
	minimum = 7
	maximum = 48
Slowest packet = 31105
Flit latency average = 20.1266
	minimum = 7
	maximum = 48
Slowest flit = 31105
Fragmentation average = 0
	minimum = 0
	maximum = 0
Injected packet rate average = 0.00989583
	minimum = 0.007 (at node 11)
	maximum = 0.0133333 (at node 1)
Accepted packet rate average = 0.009875
	minimum = 0 (at node 0)
	maximum = 0.158 (at node 2)
Injected flit rate average = 0.00989583
	minimum = 0.007 (at node 11)
	maximum = 0.0133333 (at node 1)
Accepted flit rate average= 0.009875
	minimum = 0 (at node 0)
	maximum = 0.158 (at node 2)
Injected packet length average = 1
Accepted packet length average = 1
Total in-flight flits = 4 (4 measured)
latency change    = 0.00187899
throughput change = 0.043038
Class 0:
Packet latency average = 20.1544
	minimum = 7
	maximum = 48
Network latency average = 20.1544
	minimum = 7
	maximum = 48
Slowest packet = 31105
Flit latency average = 20.1732
	minimum = 7
	maximum = 48
Slowest flit = 31105
Fragmentation average = 0
	minimum = 0
	maximum = 0
Injected packet rate average = 0.0100357
	minimum = 0.00742857 (at node 12)
	maximum = 0.0128571 (at node 1)
Accepted packet rate average = 0.01
	minimum = 0 (at node 0)
	maximum = 0.16 (at node 2)
Injected flit rate average = 0.0100357
	minimum = 0.00742857 (at node 12)
	maximum = 0.0128571 (at node 1)
Accepted flit rate average= 0.01
	minimum = 0 (at node 0)
	maximum = 0.16 (at node 2)
Injected packet length average = 1
Accepted packet length average = 1
Total in-flight flits = 5 (5 measured)
latency change    = 0.00249894
throughput change = 0.0125
Draining all recorded packets ...
Draining remaining packets ...
Time taken is 5040 cycles
Class 0:
Packet latency average = 19.4545
	minimum = 7
	maximum = 35
Network latency average = 19.4545
	minimum = 7
	maximum = 35
Slowest packet = 31476
Flit latency average = 19.4545
	minimum = 7
	maximum = 35
Slowest flit = 31476
Fragmentation average = 0
	minimum = 0
	maximum = 0
Injected packet rate average = 0.00975
	minimum = 0.004 (at node 8)
	maximum = 0.014 (at node 1)
Accepted packet rate average = 0.009625
	minimum = 0 (at node 0)
	maximum = 0.154 (at node 2)
Injected flit rate average = 0.00975
	minimum = 0.004 (at node 8)
	maximum = 0.014 (at node 1)
Accepted flit rate average= 0.009625
	minimum = 0 (at node 0)
	maximum = 0.154 (at node 2)
Injected packet length average = 1
Accepted packet length average = 1
Total in-flight flits = 1 (0 measured)
latency change    = 1
throughput change = 1
Class 0:
Packet latency average = 19.9412
	minimum = 7
	maximum = 35
Network latency average = 19.9412
	minimum = 7
	maximum = 35
Slowest packet = 31476
Flit latency average = 19.9412
	minimum = 7
	maximum = 35
Slowest flit = 31476
Fragmentation average = 0
	minimum = 0
	maximum = 0
Injected packet rate average = 0.0095625
	minimum = 0.006 (at node 5)
	maximum = 0.014 (at node 11)
Accepted packet rate average = 0.0095625
	minimum = 0 (at node 0)
	maximum = 0.153 (at node 2)
Injected flit rate average = 0.0095625
	minimum = 0.006 (at node 5)
	maximum = 0.014 (at node 11)
Accepted flit rate average= 0.0095625
	minimum = 0 (at node 0)
	maximum = 0.153 (at node 2)
Injected packet length average = 1
Accepted packet length average = 1
Total in-flight flits = 0 (0 measured)
latency change    = 0.0244033
throughput change = 0.00653595
Class 0:
Packet latency average = 18.7765
	minimum = 7
	maximum = 40
Network latency average = 18.7765
	minimum = 7
	maximum = 40
Slowest packet = 31617
Flit latency average = 18.7765
	minimum = 7
	maximum = 40
Slowest flit = 31617
Fragmentation average = 0
	minimum = 0
	maximum = 0
Injected packet rate average = 0.0115
	minimum = 0.002 (at node 8)
	maximum = 0.022 (at node 14)
Accepted packet rate average = 0.010625
	minimum = 0 (at node 0)
	maximum = 0.17 (at node 2)
Injected flit rate average = 0.0115
	minimum = 0.002 (at node 8)
	maximum = 0.022 (at node 14)
Accepted flit rate average= 0.010625
	minimum = 0 (at node 0)
	maximum = 0.17 (at node 2)
Injected packet length average = 1
Accepted packet length average = 1
Total in-flight flits = 7 (0 measured)
latency change    = 0.0620301
throughput change = 0.1
Warmed up ...Time used is 1500 cycles
Class 0:
Packet latency average = 19.4
	minimum = 7
	maximum = 33
Network latency average = 19.4
	minimum = 7
	maximum = 33
Slowest packet = 31699
Flit latency average = 19.8442
	minimum = 7
	maximum = 34
Slowest flit = 31681
Fragmentation average = 0
	minimum = 0
	maximum = 0
Injected packet rate average = 0.009
	minimum = 0 (at node 10)
	maximum = 0.018 (at node 3)
Accepted packet rate average = 0.009625
	minimum = 0 (at node 0)
	maximum = 0.154 (at node 2)
Injected flit rate average = 0.009
	minimum = 0 (at node 10)
	maximum = 0.018 (at node 3)
Accepted flit rate average= 0.009625
	minimum = 0 (at node 0)
	maximum = 0.154 (at node 2)
Injected packet length average = 1
Accepted packet length average = 1
Total in-flight flits = 2 (2 measured)
latency change    = 0.0321407
throughput change = 0.103896
Class 0:
Packet latency average = 19.2153
	minimum = 7
	maximum = 33
Network latency average = 19.2153
	minimum = 7
	maximum = 33
Slowest packet = 31699
Flit latency average = 19.4503
	minimum = 7
	maximum = 34
Slowest flit = 31681
Fragmentation average = 0
	minimum = 0
	maximum = 0
Injected packet rate average = 0.00925
	minimum = 0.002 (at node 10)
	maximum = 0.015 (at node 1)
Accepted packet rate average = 0.0094375
	minimum = 0 (at node 0)
	maximum = 0.151 (at node 2)
Injected flit rate average = 0.00925
	minimum = 0.002 (at node 10)
	maximum = 0.015 (at node 1)
Accepted flit rate average= 0.0094375
	minimum = 0 (at node 0)
	maximum = 0.151 (at node 2)
Injected packet length average = 1
Accepted packet length average = 1
Total in-flight flits = 4 (4 measured)
latency change    = 0.0096133
throughput change = 0.0198675
Class 0:
Packet latency average = 18.771
	minimum = 7
	maximum = 42
Network latency average = 18.771
	minimum = 7
	maximum = 42
Slowest packet = 31848
Flit latency average = 18.9457
	minimum = 7
	maximum = 42
Slowest flit = 31848
Fragmentation average = 0
	minimum = 0
	maximum = 0
Injected packet rate average = 0.00904167
	minimum = 0.00466667 (at node 10)
	maximum = 0.014 (at node 1)
Accepted packet rate average = 0.00920833
	minimum = 0 (at node 0)
	maximum = 0.147333 (at node 2)
Injected flit rate average = 0.00904167
	minimum = 0.00466667 (at node 10)
	maximum = 0.014 (at node 1)
Accepted flit rate average= 0.00920833
	minimum = 0 (at node 0)
	maximum = 0.147333 (at node 2)
Injected packet length average = 1
Accepted packet length average = 1
Total in-flight flits = 3 (3 measured)
latency change    = 0.0236668
throughput change = 0.0248869
Class 0:
Packet latency average = 19.2509
	minimum = 7
	maximum = 42
Network latency average = 19.2509
	minimum = 7
	maximum = 42
Slowest packet = 31848
Flit latency average = 19.3691
	minimum = 7
	maximum = 42
Slowest flit = 31848
Fragmentation average = 0
	minimum = 0
	maximum = 0
Injected packet rate average = 0.0091875
	minimum = 0.005 (at node 10)
	maximum = 0.0125 (at node 1)
Accepted packet rate average = 0.0093125
	minimum = 0 (at node 0)
	maximum = 0.149 (at node 2)
Injected flit rate average = 0.0091875
	minimum = 0.005 (at node 10)
	maximum = 0.0125 (at node 1)
Accepted flit rate average= 0.0093125
	minimum = 0 (at node 0)
	maximum = 0.149 (at node 2)
Injected packet length average = 1
Accepted packet length average = 1
Total in-flight flits = 3 (3 measured)
latency change    = 0.0249252
throughput change = 0.0111857
Draining all recorded packets ...
Draining remaining packets ...
Time taken is 3535 cycles
Class 0:
Packet latency average = 20.6438
	minimum = 7
	maximum = 41
Network latency average = 20.6438
	minimum = 7
	maximum = 41
Slowest packet = 32023
Flit latency average = 20.6438
	minimum = 7
	maximum = 41
Slowest flit = 32023
Fragmentation average = 0
	minimum = 0
	maximum = 0
Injected packet rate average = 0.0095
	minimum = 0.004 (at node 1)
	maximum = 0.018 (at node 12)
Accepted packet rate average = 0.009125
	minimum = 0 (at node 0)
	maximum = 0.146 (at node 2)
Injected flit rate average = 0.0095
	minimum = 0.004 (at node 1)
	maximum = 0.018 (at node 12)
Accepted flit rate average= 0.009125
	minimum = 0 (at node 0)
	maximum = 0.146 (at node 2)
Injected packet length average = 1
Accepted packet length average = 1
Total in-flight flits = 3 (0 measured)
latency change    = 1
throughput change = 1
Class 0:
Packet latency average = 19.8868
	minimum = 7
	maximum = 41
Network latency average = 19.8868
	minimum = 7
	maximum = 41
Slowest packet = 32023
Flit latency average = 19.8868
	minimum = 7
	maximum = 41
Slowest flit = 32023
Fragmentation average = 0
	minimum = 0
	maximum = 0
Injected packet rate average = 0.0104375
	minimum = 0.003 (at node 5)
	maximum = 0.015 (at node 3)
Accepted packet rate average = 0.0099375
	minimum = 0 (at node 0)
	maximum = 0.159 (at node 2)
Injected flit rate average = 0.0104375
	minimum = 0.003 (at node 5)
	maximum = 0.015 (at node 3)
Accepted flit rate average= 0.0099375
	minimum = 0 (at node 0)
	maximum = 0.159 (at node 2)
Injected packet length average = 1
Accepted packet length average = 1
Total in-flight flits = 8 (0 measured)
latency change    = 0.0380676
throughput change = 0.081761
Class 0:
Packet latency average = 22.2532
	minimum = 7
	maximum = 52
Network latency average = 22.2532
	minimum = 7
	maximum = 52
Slowest packet = 32145
Flit latency average = 22.2532
	minimum = 7
	maximum = 52
Slowest flit = 32145
Fragmentation average = 0
	minimum = 0
	maximum = 0
Injected packet rate average = 0.00925
	minimum = 0.006 (at node 1)
	maximum = 0.016 (at node 8)
Accepted packet rate average = 0.009875
	minimum = 0 (at node 0)
	maximum = 0.158 (at node 2)
Injected flit rate average = 0.00925
	minimum = 0.006 (at node 1)
	maximum = 0.016 (at node 8)
Accepted flit rate average= 0.009875
	minimum = 0 (at node 0)
	maximum = 0.158 (at node 2)
Injected packet length average = 1
Accepted packet length average = 1
Total in-flight flits = 3 (0 measured)
latency change    = 0.106339
throughput change = 0.00632911
Warmed up ...Time used is 1500 cycles
Class 0:
Packet latency average = 19.5125
	minimum = 7
	maximum = 33
Network latency average = 19.5125
	minimum = 7
	maximum = 33
Slowest packet = 32239
Flit latency average = 19.5422
	minimum = 7
	maximum = 33
Slowest flit = 32239
Fragmentation average = 0
	minimum = 0
	maximum = 0
Injected packet rate average = 0.01025
	minimum = 0.004 (at node 0)
	maximum = 0.018 (at node 14)
Accepted packet rate average = 0.010375
	minimum = 0 (at node 0)
	maximum = 0.166 (at node 2)
Injected flit rate average = 0.01025
	minimum = 0.004 (at node 0)
	maximum = 0.018 (at node 14)
Accepted flit rate average= 0.010375
	minimum = 0 (at node 0)
	maximum = 0.166 (at node 2)
Injected packet length average = 1
Accepted packet length average = 1
Total in-flight flits = 2 (2 measured)
latency change    = 0.140457
throughput change = 0.0481928
Class 0:
Packet latency average = 18.6582
	minimum = 7
	maximum = 33
Network latency average = 18.6582
	minimum = 7
	maximum = 33
Slowest packet = 32239
Flit latency average = 18.6894
	minimum = 7
	maximum = 33
Slowest flit = 32239
Fragmentation average = 0
	minimum = 0
	maximum = 0
Injected packet rate average = 0.0100625
	minimum = 0.005 (at node 4)
	maximum = 0.017 (at node 2)
Accepted packet rate average = 0.0100625
	minimum = 0 (at node 0)
	maximum = 0.161 (at node 2)
Injected flit rate average = 0.0100625
	minimum = 0.005 (at node 4)
	maximum = 0.017 (at node 2)
Accepted flit rate average= 0.0100625
	minimum = 0 (at node 0)
	maximum = 0.161 (at node 2)
Injected packet length average = 1
Accepted packet length average = 1
Total in-flight flits = 3 (3 measured)
latency change    = 0.0457853
throughput change = 0.0310559
Class 0:
Packet latency average = 19.186
	minimum = 7
	maximum = 33
Network latency average = 19.186
	minimum = 7
	maximum = 33
Slowest packet = 32239
Flit latency average = 19.2
	minimum = 7
	maximum = 33
Slowest flit = 32239
Fragmentation average = 0
	minimum = 0
	maximum = 0
Injected packet rate average = 0.0101667
	minimum = 0.006 (at node 10)
	maximum = 0.0146667 (at node 2)
Accepted packet rate average = 0.0102083
	minimum = 0 (at node 0)
	maximum = 0.163333 (at node 2)
Injected flit rate average = 0.0101667
	minimum = 0.006 (at node 10)
	maximum = 0.0146667 (at node 2)
Accepted flit rate average= 0.0102083
	minimum = 0 (at node 0)
	maximum = 0.163333 (at node 2)
Injected packet length average = 1
Accepted packet length average = 1
Total in-flight flits = 2 (2 measured)
latency change    = 0.0275057
throughput change = 0.0142857
Class 0:
Packet latency average = 19.2437
	minimum = 7
	maximum = 33
Network latency average = 19.2437
	minimum = 7
	maximum = 33
Slowest packet = 32239
Flit latency average = 19.2539
	minimum = 7
	maximum = 33
Slowest flit = 32239
Fragmentation average = 0
	minimum = 0
	maximum = 0
Injected packet rate average = 0.0100625
	minimum = 0.0065 (at node 10)
	maximum = 0.0135 (at node 2)
Accepted packet rate average = 0.00996875
	minimum = 0 (at node 0)
	maximum = 0.1595 (at node 2)
Injected flit rate average = 0.0100625
	minimum = 0.0065 (at node 10)
	maximum = 0.0135 (at node 2)
Accepted flit rate average= 0.00996875
	minimum = 0 (at node 0)
	maximum = 0.1595 (at node 2)
Injected packet length average = 1
Accepted packet length average = 1
Total in-flight flits = 6 (6 measured)
latency change    = 0.00299945
throughput change = 0.0240334
Draining all recorded packets ...
Draining remaining packets ...
Time taken is 3533 cycles
====== Overall Traffic Statistics ======
====== Traffic class 0 ======
Packet latency average = 20.1061 (50 samples)
	minimum = 7 (50 samples)
	maximum = 45 (50 samples)
Network latency average = 20.1061 (50 samples)
	minimum = 7 (50 samples)
	maximum = 45 (50 samples)
Flit latency average = 20.1406 (50 samples)
	minimum = 7 (50 samples)
	maximum = 45.02 (50 samples)
Fragmentation average = 0 (50 samples)
	minimum = 0 (50 samples)
	maximum = 0 (50 samples)
Injected packet rate average = 0.00997564 (50 samples)
	minimum = 0.00650229 (50 samples)
	maximum = 0.0134932 (50 samples)
Accepted packet rate average = 0.00997863 (50 samples)
	minimum = 0 (50 samples)
	maximum = 0.159658 (50 samples)
Injected flit rate average = 0.00997564 (50 samples)
	minimum = 0.00650229 (50 samples)
	maximum = 0.0134932 (50 samples)
Accepted flit rate average = 0.00997863 (50 samples)
	minimum = 0 (50 samples)
	maximum = 0.159658 (50 samples)
Injected packet size average = 1 (50 samples)
Accepted packet size average = 1 (50 samples)
Hops average = 3.48162 (50 samples)
Total run time 1.0998
