BEGIN Configuration File: /tmp/tmp9wgmekal.cfg
topology = mesh;
k = 4;
n = 2;
routing_function = planar_adapt;
num_vcs = 4;
vc_buf_size = 4;
wait_for_tail_credit = 1;
vc_allocator = islip;
sw_allocator = islip;
alloc_iters = 1;
credit_delay = 2;
routing_delay = 1;
vc_alloc_delay = 1;
sw_alloc_delay = 1;
input_speedup = 2;
output_speedup = 1;
internal_speedup = 1.0;
traffic = uniform;
packet_size = 1;
sim_type = latency;
injection_rate = 0.1;
warmup_periods = 3;
sample_period = 500;
sim_count = 50;
seed = 1;
link_failures = 1;
fail_seed = 101;

END Configuration File: /tmp/tmp9wgmekal.cfg
failure at node 14, channel 0 (1/1)
Class 0:
Packet latency average = 23.6841
	minimum = 7
	maximum = 86
Network latency average = 23.5294
	minimum = 7
	maximum = 83
Slowest packet = 217
Flit latency average = 23.5294
	minimum = 7
	maximum = 83
Slowest flit = 217
Fragmentation average = 0
	minimum = 0
	maximum = 0
Injected packet rate average = 0.1015
	minimum = 0.08 (at node 8)
	maximum = 0.128 (at node 6)
Accepted packet rate average = 0.09775
	minimum = 0.064 (at node 6)
	maximum = 0.12 (at node 9)
Injected flit rate average = 0.1015
	minimum = 0.08 (at node 8)
	maximum = 0.128 (at node 6)
Accepted flit rate average= 0.09775
	minimum = 0.064 (at node 6)
	maximum = 0.12 (at node 9)
Injected packet length average = 1
Accepted packet length average = 1
Total in-flight flits = 30 (0 measured)
latency change    = 1
throughput change = 1
Class 0:
Packet latency average = 24.5082
	minimum = 7
	maximum = 120
Network latency average = 24.3519
	minimum = 7
	maximum = 120
Slowest packet = 861
Flit latency average = 24.3519
	minimum = 7
	maximum = 120
Slowest flit = 861
Fragmentation average = 0
	minimum = 0
	maximum = 0
Injected packet rate average = 0.101437
	minimum = 0.081 (at node 8)
	maximum = 0.121 (at node 6)
Accepted packet rate average = 0.099625
	minimum = 0.069 (at node 6)
	maximum = 0.118 (at node 9)
Injected flit rate average = 0.101437
	minimum = 0.081 (at node 8)
	maximum = 0.121 (at node 6)
Accepted flit rate average= 0.099625
	minimum = 0.069 (at node 6)
	maximum = 0.118 (at node 9)
Injected packet length average = 1
Accepted packet length average = 1
Total in-flight flits = 29 (0 measured)
latency change    = 0.033622
throughput change = 0.0188206
Class 0:
Packet latency average = 23.1524
	minimum = 7
	maximum = 89
Network latency average = 23.1288
	minimum = 7
	maximum = 89
Slowest packet = 1845
Flit latency average = 23.1288
	minimum = 7
	maximum = 89
Slowest flit = 1845
Fragmentation average = 0
	minimum = 0
	maximum = 0
Injected packet rate average = 0.09625
	minimum = 0.08 (at node 2)
	maximum = 0.124 (at node 6)
Accepted packet rate average = 0.095125
	minimum = 0.078 (at node 12)
	maximum = 0.114 (at node 14)
Injected flit rate average = 0.09625
	minimum = 0.08 (at node 2)
	maximum = 0.124 (at node 6)
Accepted flit rate average= 0.095125
	minimum = 0.078 (at node 12)
	maximum = 0.114 (at node 14)
Injected packet length average = 1
Accepted packet length average = 1
Total in-flight flits = 38 (0 measured)
latency change    = 0.0585565
throughput change = 0.0473062
Warmed up ...Time used is 1500 cycles
Class 0:
Packet latency average = 23.1198
	minimum = 7
	maximum = 77
Network latency average = 23.1084
	minimum = 7
	maximum = 77
Slowest packet = 2903
Flit latency average = 23.2864
	minimum = 7
	maximum = 77
Slowest flit = 2903
Fragmentation average = 0
	minimum = 0
	maximum = 0
Injected packet rate average = 0.104375
	minimum = 0.08 (at node 3)
	maximum = 0.124 (at node 9)
Accepted packet rate average = 0.103875
	minimum = 0.082 (at node 10)
	maximum = 0.134 (at node 13)
Injected flit rate average = 0.104375
	minimum = 0.08 (at node 3)
	maximum = 0.124 (at node 9)
Accepted flit rate average= 0.103875
	minimum = 0.082 (at node 10)
	maximum = 0.134 (at node 13)
Injected packet length average = 1
Accepted packet length average = 1
Total in-flight flits = 42 (42 measured)
latency change    = 0.00141146
throughput change = 0.0842359
Class 0:
Packet latency average = 23.4972
	minimum = 7
	maximum = 85
Network latency average = 23.4622
	minimum = 7
	maximum = 85
Slowest packet = 3899
Flit latency average = 23.5429
	minimum = 7
	maximum = 85
Slowest flit = 3899
Fragmentation average = 0
	minimum = 0
	maximum = 0
Injected packet rate average = 0.104
	minimum = 0.088 (at node 12)
	maximum = 0.12 (at node 1)
Accepted packet rate average = 0.104063
	minimum = 0.087 (at node 10)
	maximum = 0.122 (at node 5)
Injected flit rate average = 0.104
	minimum = 0.088 (at node 12)
	maximum = 0.12 (at node 1)
Accepted flit rate average= 0.104063
	minimum = 0.087 (at node 10)
	maximum = 0.122 (at node 5)
Injected packet length average = 1
Accepted packet length average = 1
Total in-flight flits = 37 (37 measured)
latency change    = 0.016063
throughput change = 0.0018018
Class 0:
Packet latency average = 25.6309
	minimum = 7
	maximum = 217
Network latency average = 24.387
	minimum = 7
	maximum = 151
Slowest packet = 4231
Flit latency average = 24.4278
	minimum = 7
	maximum = 151
Slowest flit = 4231
Fragmentation average = 0
	minimum = 0
	maximum = 0
Injected packet rate average = 0.101625
	minimum = 0.0886667 (at node 2)
	maximum = 0.113333 (at node 1)
Accepted packet rate average = 0.1015
	minimum = 0.0826667 (at node 10)
	maximum = 0.114 (at node 4)
Injected flit rate average = 0.101625
	minimum = 0.0886667 (at node 2)
	maximum = 0.113333 (at node 1)
Accepted flit rate average= 0.1015
	minimum = 0.0826667 (at node 10)
	maximum = 0.114 (at node 4)
Injected packet length average = 1
Accepted packet length average = 1
Total in-flight flits = 42 (42 measured)
latency change    = 0.0832474
throughput change = 0.0252463
Class 0:
Packet latency average = 25.887
	minimum = 7
	maximum = 230
Network latency average = 24.6919
	minimum = 7
	maximum = 151
Slowest packet = 4231
Flit latency average = 24.7192
	minimum = 7
	maximum = 151
Slowest flit = 4231
Fragmentation average = 0
	minimum = 0
	maximum = 0
Injected packet rate average = 0.100187
	minimum = 0.0895 (at node 2)
	maximum = 0.107 (at node 1)
Accepted packet rate average = 0.1005
	minimum = 0.082 (at node 10)
	maximum = 0.113 (at node 13)
Injected flit rate average = 0.100187
	minimum = 0.0895 (at node 2)
	maximum = 0.107 (at node 1)
Accepted flit rate average= 0.1005
	minimum = 0.082 (at node 10)
	maximum = 0.113 (at node 13)
Injected packet length average = 1
Accepted packet length average = 1
Total in-flight flits = 28 (28 measured)
latency change    = 0.00989273
throughput change = 0.00995025
Class 0:
Packet latency average = 26.2836
	minimum = 7
	maximum = 275
Network latency average = 24.9364
	minimum = 7
	maximum = 273
Slowest packet = 5876
Flit latency average = 24.956
	minimum = 7
	maximum = 273
Slowest flit = 5876
Fragmentation average = 0
	minimum = 0
	maximum = 0
Injected packet rate average = 0.10045
	minimum = 0.0904 (at node 0)
	maximum = 0.1064 (at node 4)
Accepted packet rate average = 0.10005
	minimum = 0.084 (at node 10)
	maximum = 0.1116 (at node 4)
Injected flit rate average = 0.10045
	minimum = 0.0904 (at node 0)
	maximum = 0.1064 (at node 4)
Accepted flit rate average= 0.10005
	minimum = 0.084 (at node 10)
	maximum = 0.1116 (at node 4)
Injected packet length average = 1
Accepted packet length average = 1
Total in-flight flits = 55 (55 measured)
latency change    = 0.0150861
throughput change = 0.00449775
Class 0:
Packet latency average = 27.6202
	minimum = 7
	maximum = 365
Network latency average = 25.0882
	minimum = 7
	maximum = 280
Slowest packet = 6042
Flit latency average = 25.1033
	minimum = 7
	maximum = 280
Slowest flit = 6042
Fragmentation average = 0
	minimum = 0
	maximum = 0
Injected packet rate average = 0.100687
	minimum = 0.089 (at node 0)
	maximum = 0.107667 (at node 1)
Accepted packet rate average = 0.100458
	minimum = 0.0906667 (at node 10)
	maximum = 0.113 (at node 4)
Injected flit rate average = 0.100687
	minimum = 0.089 (at node 0)
	maximum = 0.107667 (at node 1)
Accepted flit rate average= 0.100458
	minimum = 0.0906667 (at node 10)
	maximum = 0.113 (at node 4)
Injected packet length average = 1
Accepted packet length average = 1
Total in-flight flits = 49 (49 measured)
latency change    = 0.0483936
throughput change = 0.0040647
Draining all recorded packets ...
Draining remaining packets ...
Time taken is 4586 cycles
Class 0:
Packet latency average = 23.199
	minimum = 7
	maximum = 68
Network latency average = 23.194
	minimum = 7
	maximum = 68
Slowest packet = 7546
Flit latency average = 23.194
	minimum = 7
	maximum = 68
Slowest flit = 7546
Fragmentation average = 0
	minimum = 0
	maximum = 0
Injected packet rate average = 0.1055
	minimum = 0.086 (at node 10)
	maximum = 0.134 (at node 2)
Accepted packet rate average = 0.099875
	minimum = 0.076 (at node 14)
	maximum = 0.128 (at node 10)
Injected flit rate average = 0.1055
	minimum = 0.086 (at node 10)
	maximum = 0.134 (at node 2)
Accepted flit rate average= 0.099875
	minimum = 0.076 (at node 14)
	maximum = 0.128 (at node 10)
Injected packet length average = 1
Accepted packet length average = 1
Total in-flight flits = 45 (0 measured)
latency change    = 1
throughput change = 1
Class 0:
Packet latency average = 23.9629
	minimum = 7
	maximum = 142
Network latency average = 23.9228
	minimum = 7
	maximum = 142
Slowest packet = 8486
Flit latency average = 23.9228
	minimum = 7
	maximum = 142
Slowest flit = 8486
Fragmentation average = 0
	minimum = 0
	maximum = 0
Injected packet rate average = 0.103375
	minimum = 0.091 (at node 0)
	maximum = 0.119 (at node 2)
Accepted packet rate average = 0.101187
	minimum = 0.09 (at node 8)
	maximum = 0.12 (at node 10)
Injected flit rate average = 0.103375
	minimum = 0.091 (at node 0)
	maximum = 0.119 (at node 2)
Accepted flit rate average= 0.101187
	minimum = 0.09 (at node 8)
	maximum = 0.12 (at node 10)
Injected packet length average = 1
Accepted packet length average = 1
Total in-flight flits = 36 (0 measured)
latency change    = 0.0318801
throughput change = 0.012971
Class 0:
Packet latency average = 28.4789
	minimum = 7
	maximum = 198
Network latency average = 26.2548
	minimum = 7
	maximum = 154
Slowest packet = 9102
Flit latency average = 26.2548
	minimum = 7
	maximum = 154
Slowest flit = 9364
Fragmentation average = 0
	minimum = 0
	maximum = 0
Injected packet rate average = 0.099
	minimum = 0.072 (at node 2)
	maximum = 0.126 (at node 14)
Accepted packet rate average = 0.097625
	minimum = 0.074 (at node 13)
	maximum = 0.126 (at node 5)
Injected flit rate average = 0.099
	minimum = 0.072 (at node 2)
	maximum = 0.126 (at node 14)
Accepted flit rate average= 0.097625
	minimum = 0.074 (at node 13)
	maximum = 0.126 (at node 5)
Injected packet length average = 1
Accepted packet length average = 1
Total in-flight flits = 47 (0 measured)
latency change    = 0.158571
throughput change = 0.0364917
Warmed up ...Time used is 1500 cycles
Class 0:
Packet latency average = 31.6843
	minimum = 7
	maximum = 262
Network latency average = 25.2018
	minimum = 7
	maximum = 120
Slowest packet = 9792
Flit latency average = 27.5671
	minimum = 7
	maximum = 294
Slowest flit = 9421
Fragmentation average = 0
	minimum = 0
	maximum = 0
Injected packet rate average = 0.100875
	minimum = 0.074 (at node 10)
	maximum = 0.142 (at node 15)
Accepted packet rate average = 0.1025
	minimum = 0.078 (at node 15)
	maximum = 0.138 (at node 6)
Injected flit rate average = 0.100875
	minimum = 0.074 (at node 10)
	maximum = 0.142 (at node 15)
Accepted flit rate average= 0.1025
	minimum = 0.078 (at node 15)
	maximum = 0.138 (at node 6)
Injected packet length average = 1
Accepted packet length average = 1
Total in-flight flits = 33 (33 measured)
latency change    = 0.101169
throughput change = 0.047561
Class 0:
Packet latency average = 27.6866
	minimum = 7
	maximum = 262
Network latency average = 24.4618
	minimum = 7
	maximum = 120
Slowest packet = 9792
Flit latency average = 25.6827
	minimum = 7
	maximum = 294
Slowest flit = 9421
Fragmentation average = 0
	minimum = 0
	maximum = 0
Injected packet rate average = 0.1005
	minimum = 0.088 (at node 7)
	maximum = 0.124 (at node 15)
Accepted packet rate average = 0.101062
	minimum = 0.083 (at node 15)
	maximum = 0.116 (at node 0)
Injected flit rate average = 0.1005
	minimum = 0.088 (at node 7)
	maximum = 0.124 (at node 15)
Accepted flit rate average= 0.101062
	minimum = 0.083 (at node 15)
	maximum = 0.116 (at node 0)
Injected packet length average = 1
Accepted packet length average = 1
Total in-flight flits = 37 (37 measured)
latency change    = 0.144392
throughput change = 0.0142239
Class 0:
Packet latency average = 26.4112
	minimum = 7
	maximum = 262
Network latency average = 24.2459
	minimum = 7
	maximum = 131
Slowest packet = 9792
Flit latency average = 25.0626
	minimum = 7
	maximum = 294
Slowest flit = 9421
Fragmentation average = 0
	minimum = 0
	maximum = 0
Injected packet rate average = 0.10125
	minimum = 0.0893333 (at node 6)
	maximum = 0.116667 (at node 12)
Accepted packet rate average = 0.10125
	minimum = 0.0886667 (at node 5)
	maximum = 0.115333 (at node 6)
Injected flit rate average = 0.10125
	minimum = 0.0893333 (at node 6)
	maximum = 0.116667 (at node 12)
Accepted flit rate average= 0.10125
	minimum = 0.0886667 (at node 5)
	maximum = 0.115333 (at node 6)
Injected packet length average = 1
Accepted packet length average = 1
Total in-flight flits = 46 (46 measured)
latency change    = 0.0482892
throughput change = 0.00185185
Class 0:
Packet latency average = 25.8227
	minimum = 7
	maximum = 262
Network latency average = 24.1379
	minimum = 7
	maximum = 131
Slowest packet = 9792
Flit latency average = 24.7563
	minimum = 7
	maximum = 294
Slowest flit = 9421
Fragmentation average = 0
	minimum = 0
	maximum = 0
Injected packet rate average = 0.10025
	minimum = 0.092 (at node 7)
	maximum = 0.1085 (at node 15)
Accepted packet rate average = 0.100531
	minimum = 0.0885 (at node 2)
	maximum = 0.118 (at node 6)
Injected flit rate average = 0.10025
	minimum = 0.092 (at node 7)
	maximum = 0.1085 (at node 15)
Accepted flit rate average= 0.100531
	minimum = 0.0885 (at node 2)
	maximum = 0.118 (at node 6)
Injected packet length average = 1
Accepted packet length average = 1
Total in-flight flits = 37 (37 measured)
latency change    = 0.0227913
throughput change = 0.00714952
Class 0:
Packet latency average = 25.1265
	minimum = 7
	maximum = 262
Network latency average = 23.7665
	minimum = 7
	maximum = 131
Slowest packet = 9792
Flit latency average = 24.2714
	minimum = 7
	maximum = 294
Slowest flit = 9421
Fragmentation average = 0
	minimum = 0
	maximum = 0
Injected packet rate average = 0.0991
	minimum = 0.0912 (at node 10)
	maximum = 0.1052 (at node 15)
Accepted packet rate average = 0.099375
	minimum = 0.0872 (at node 2)
	maximum = 0.1124 (at node 6)
Injected flit rate average = 0.0991
	minimum = 0.0912 (at node 10)
	maximum = 0.1052 (at node 15)
Accepted flit rate average= 0.099375
	minimum = 0.0872 (at node 2)
	maximum = 0.1124 (at node 6)
Injected packet length average = 1
Accepted packet length average = 1
Total in-flight flits = 35 (35 measured)
latency change    = 0.0277072
throughput change = 0.0116352
Draining all recorded packets ...
Draining remaining packets ...
Time taken is 4068 cycles
Class 0:
Packet latency average = 23.5511
	minimum = 7
	maximum = 96
Network latency average = 23.5511
	minimum = 7
	maximum = 96
Slowest packet = 14327
Flit latency average = 23.5511
	minimum = 7
	maximum = 96
Slowest flit = 14327
Fragmentation average = 0
	minimum = 0
	maximum = 0
Injected packet rate average = 0.101875
	minimum = 0.084 (at node 3)
	maximum = 0.122 (at node 2)
Accepted packet rate average = 0.096625
	minimum = 0.062 (at node 13)
	maximum = 0.124 (at node 12)
Injected flit rate average = 0.101875
	minimum = 0.084 (at node 3)
	maximum = 0.122 (at node 2)
Accepted flit rate average= 0.096625
	minimum = 0.062 (at node 13)
	maximum = 0.124 (at node 12)
Injected packet length average = 1
Accepted packet length average = 1
Total in-flight flits = 42 (0 measured)
latency change    = 1
throughput change = 1
Class 0:
Packet latency average = 27.1527
	minimum = 7
	maximum = 250
Network latency average = 25.1132
	minimum = 7
	maximum = 250
Slowest packet = 14682
Flit latency average = 25.1132
	minimum = 7
	maximum = 250
Slowest flit = 14682
Fragmentation average = 0
	minimum = 0
	maximum = 0
Injected packet rate average = 0.101562
	minimum = 0.087 (at node 3)
	maximum = 0.12 (at node 0)
Accepted packet rate average = 0.09825
	minimum = 0.073 (at node 13)
	maximum = 0.121 (at node 4)
Injected flit rate average = 0.101562
	minimum = 0.087 (at node 3)
	maximum = 0.12 (at node 0)
Accepted flit rate average= 0.09825
	minimum = 0.073 (at node 13)
	maximum = 0.121 (at node 4)
Injected packet length average = 1
Accepted packet length average = 1
Total in-flight flits = 54 (0 measured)
latency change    = 0.132642
throughput change = 0.0165394
Class 0:
Packet latency average = 34.3825
	minimum = 7
	maximum = 402
Network latency average = 29.1345
	minimum = 7
	maximum = 260
Slowest packet = 15234
Flit latency average = 29.1345
	minimum = 7
	maximum = 260
Slowest flit = 15234
Fragmentation average = 0
	minimum = 0
	maximum = 0
Injected packet rate average = 0.094375
	minimum = 0.064 (at node 12)
	maximum = 0.132 (at node 3)
Accepted packet rate average = 0.09575
	minimum = 0.064 (at node 3)
	maximum = 0.116 (at node 7)
Injected flit rate average = 0.094375
	minimum = 0.064 (at node 12)
	maximum = 0.132 (at node 3)
Accepted flit rate average= 0.09575
	minimum = 0.064 (at node 3)
	maximum = 0.116 (at node 7)
Injected packet length average = 1
Accepted packet length average = 1
Total in-flight flits = 44 (0 measured)
latency change    = 0.210277
throughput change = 0.0261097
Warmed up ...Time used is 1500 cycles
Class 0:
Packet latency average = 39.7892
	minimum = 7
	maximum = 459
Network latency average = 26.7905
	minimum = 7
	maximum = 206
Slowest packet = 16169
Flit latency average = 27.8763
	minimum = 7
	maximum = 206
Slowest flit = 16465
Fragmentation average = 0
	minimum = 0
	maximum = 0
Injected packet rate average = 0.098
	minimum = 0.08 (at node 10)
	maximum = 0.112 (at node 13)
Accepted packet rate average = 0.098
	minimum = 0.07 (at node 0)
	maximum = 0.118 (at node 3)
Injected flit rate average = 0.098
	minimum = 0.08 (at node 10)
	maximum = 0.112 (at node 13)
Accepted flit rate average= 0.098
	minimum = 0.07 (at node 0)
	maximum = 0.118 (at node 3)
Injected packet length average = 1
Accepted packet length average = 1
Total in-flight flits = 43 (43 measured)
latency change    = 0.135883
throughput change = 0.0229592
Class 0:
Packet latency average = 41.1291
	minimum = 7
	maximum = 636
Network latency average = 27.4385
	minimum = 7
	maximum = 275
Slowest packet = 16169
Flit latency average = 27.9841
	minimum = 7
	maximum = 275
Slowest flit = 17114
Fragmentation average = 0
	minimum = 0
	maximum = 0
Injected packet rate average = 0.0948125
	minimum = 0.064 (at node 12)
	maximum = 0.112 (at node 1)
Accepted packet rate average = 0.09425
	minimum = 0.075 (at node 0)
	maximum = 0.116 (at node 3)
Injected flit rate average = 0.0948125
	minimum = 0.064 (at node 12)
	maximum = 0.112 (at node 1)
Accepted flit rate average= 0.09425
	minimum = 0.075 (at node 0)
	maximum = 0.116 (at node 3)
Injected packet length average = 1
Accepted packet length average = 1
Total in-flight flits = 52 (52 measured)
latency change    = 0.0325781
throughput change = 0.0397878
Class 0:
Packet latency average = 46.8979
	minimum = 7
	maximum = 924
Network latency average = 28.0874
	minimum = 7
	maximum = 316
Slowest packet = 16169
Flit latency average = 28.4332
	minimum = 7
	maximum = 316
Slowest flit = 17681
Fragmentation average = 0
	minimum = 0
	maximum = 0
Injected packet rate average = 0.0959167
	minimum = 0.0626667 (at node 12)
	maximum = 0.112 (at node 7)
Accepted packet rate average = 0.0957083
	minimum = 0.0806667 (at node 4)
	maximum = 0.120667 (at node 3)
Injected flit rate average = 0.0959167
	minimum = 0.0626667 (at node 12)
	maximum = 0.112 (at node 7)
Accepted flit rate average= 0.0957083
	minimum = 0.0806667 (at node 4)
	maximum = 0.120667 (at node 3)
Injected packet length average = 1
Accepted packet length average = 1
Total in-flight flits = 49 (49 measured)
latency change    = 0.123008
throughput change = 0.0152373
Class 0:
Packet latency average = 57.8639
	minimum = 7
	maximum = 924
Network latency average = 27.6718
	minimum = 7
	maximum = 316
Slowest packet = 16169
Flit latency average = 27.9331
	minimum = 7
	maximum = 316
Slowest flit = 17681
Fragmentation average = 0
	minimum = 0
	maximum = 0
Injected packet rate average = 0.0969375
	minimum = 0.086 (at node 12)
	maximum = 0.1085 (at node 7)
Accepted packet rate average = 0.0971562
	minimum = 0.0855 (at node 0)
	maximum = 0.117 (at node 3)
Injected flit rate average = 0.0969375
	minimum = 0.086 (at node 12)
	maximum = 0.1085 (at node 7)
Accepted flit rate average= 0.0971562
	minimum = 0.0855 (at node 0)
	maximum = 0.117 (at node 3)
Injected packet length average = 1
Accepted packet length average = 1
Total in-flight flits = 36 (36 measured)
latency change    = 0.189514
throughput change = 0.014903
Class 0:
Packet latency average = 54.5031
	minimum = 7
	maximum = 924
Network latency average = 27.3208
	minimum = 7
	maximum = 316
Slowest packet = 16169
Flit latency average = 27.5343
	minimum = 7
	maximum = 316
Slowest flit = 17681
Fragmentation average = 0
	minimum = 0
	maximum = 0
Injected packet rate average = 0.097125
	minimum = 0.0816 (at node 12)
	maximum = 0.108 (at node 7)
Accepted packet rate average = 0.09695
	minimum = 0.0848 (at node 0)
	maximum = 0.1112 (at node 3)
Injected flit rate average = 0.097125
	minimum = 0.0816 (at node 12)
	maximum = 0.108 (at node 7)
Accepted flit rate average= 0.09695
	minimum = 0.0848 (at node 0)
	maximum = 0.1112 (at node 3)
Injected packet length average = 1
Accepted packet length average = 1
Total in-flight flits = 50 (50 measured)
latency change    = 0.0616628
throughput change = 0.00212739
Class 0:
Packet latency average = 55.9112
	minimum = 7
	maximum = 924
Network latency average = 26.9972
	minimum = 7
	maximum = 316
Slowest packet = 16169
Flit latency average = 27.1762
	minimum = 7
	maximum = 316
Slowest flit = 17681
Fragmentation average = 0
	minimum = 0
	maximum = 0
Injected packet rate average = 0.0980417
	minimum = 0.0883333 (at node 10)
	maximum = 0.107 (at node 7)
Accepted packet rate average = 0.0980208
	minimum = 0.088 (at node 0)
	maximum = 0.107667 (at node 3)
Injected flit rate average = 0.0980417
	minimum = 0.0883333 (at node 10)
	maximum = 0.107 (at node 7)
Accepted flit rate average= 0.0980208
	minimum = 0.088 (at node 0)
	maximum = 0.107667 (at node 3)
Injected packet length average = 1
Accepted packet length average = 1
Total in-flight flits = 44 (44 measured)
latency change    = 0.0251837
throughput change = 0.0109245
Class 0:
Packet latency average = 53.1465
	minimum = 7
	maximum = 924
Network latency average = 26.808
	minimum = 7
	maximum = 316
Slowest packet = 16169
Flit latency average = 26.962
	minimum = 7
	maximum = 316
Slowest flit = 17681
Fragmentation average = 0
	minimum = 0
	maximum = 0
Injected packet rate average = 0.0986429
	minimum = 0.0885714 (at node 11)
	maximum = 0.108 (at node 8)
Accepted packet rate average = 0.0986429
	minimum = 0.0888571 (at node 0)
	maximum = 0.106 (at node 6)
Injected flit rate average = 0.0986429
	minimum = 0.0885714 (at node 11)
	maximum = 0.108 (at node 8)
Accepted flit rate average= 0.0986429
	minimum = 0.0888571 (at node 0)
	maximum = 0.106 (at node 6)
Injected packet length average = 1
Accepted packet length average = 1
Total in-flight flits = 43 (43 measured)
latency change    = 0.0520193
throughput change = 0.00630582
Draining all recorded packets ...
Draining remaining packets ...
Time taken is 5109 cycles
Class 0:
Packet latency average = 23.6402
	minimum = 7
	maximum = 137
Network latency average = 23.5649
	minimum = 7
	maximum = 137
Slowest packet = 22280
Flit latency average = 23.5649
	minimum = 7
	maximum = 137
Slowest flit = 22280
Fragmentation average = 0
	minimum = 0
	maximum = 0
Injected packet rate average = 0.09625
	minimum = 0.08 (at node 5)
	maximum = 0.112 (at node 10)
Accepted packet rate average = 0.089625
	minimum = 0.066 (at node 4)
	maximum = 0.112 (at node 13)
Injected flit rate average = 0.09625
	minimum = 0.08 (at node 5)
	maximum = 0.112 (at node 10)
Accepted flit rate average= 0.089625
	minimum = 0.066 (at node 4)
	maximum = 0.112 (at node 13)
Injected packet length average = 1
Accepted packet length average = 1
Total in-flight flits = 54 (0 measured)
latency change    = 1
throughput change = 1
Class 0:
Packet latency average = 26.4546
	minimum = 7
	maximum = 224
Network latency average = 24.5013
	minimum = 7
	maximum = 220
Slowest packet = 22351
Flit latency average = 24.5013
	minimum = 7
	maximum = 220
Slowest flit = 22351
Fragmentation average = 0
	minimum = 0
	maximum = 0
Injected packet rate average = 0.0968125
	minimum = 0.085 (at node 5)
	maximum = 0.112 (at node 10)
Accepted packet rate average = 0.093625
	minimum = 0.08 (at node 4)
	maximum = 0.102 (at node 1)
Injected flit rate average = 0.0968125
	minimum = 0.085 (at node 5)
	maximum = 0.112 (at node 10)
Accepted flit rate average= 0.093625
	minimum = 0.08 (at node 4)
	maximum = 0.102 (at node 1)
Injected packet length average = 1
Accepted packet length average = 1
Total in-flight flits = 51 (0 measured)
latency change    = 0.106387
throughput change = 0.0427236
Class 0:
Packet latency average = 34.6809
	minimum = 7
	maximum = 273
Network latency average = 28.7381
	minimum = 7
	maximum = 183
Slowest packet = 23273
Flit latency average = 28.7381
	minimum = 7
	maximum = 183
Slowest flit = 23273
Fragmentation average = 0
	minimum = 0
	maximum = 0
Injected packet rate average = 0.10125
	minimum = 0.076 (at node 12)
	maximum = 0.132 (at node 3)
Accepted packet rate average = 0.102625
	minimum = 0.092 (at node 8)
	maximum = 0.126 (at node 6)
Injected flit rate average = 0.10125
	minimum = 0.076 (at node 12)
	maximum = 0.132 (at node 3)
Accepted flit rate average= 0.102625
	minimum = 0.092 (at node 8)
	maximum = 0.126 (at node 6)
Injected packet length average = 1
Accepted packet length average = 1
Total in-flight flits = 41 (0 measured)
latency change    = 0.237199
throughput change = 0.0876979
Warmed up ...Time used is 1500 cycles
Class 0:
Packet latency average = 35.1413
	minimum = 7
	maximum = 359
Network latency average = 25.9381
	minimum = 7
	maximum = 245
Slowest packet = 24163
Flit latency average = 26.662
	minimum = 7
	maximum = 245
Slowest flit = 24472
Fragmentation average = 0
	minimum = 0
	maximum = 0
Injected packet rate average = 0.096875
	minimum = 0.082 (at node 5)
	maximum = 0.12 (at node 13)
Accepted packet rate average = 0.098
	minimum = 0.082 (at node 8)
	maximum = 0.114 (at node 5)
Injected flit rate average = 0.096875
	minimum = 0.082 (at node 5)
	maximum = 0.12 (at node 13)
Accepted flit rate average= 0.098
	minimum = 0.082 (at node 8)
	maximum = 0.114 (at node 5)
Injected packet length average = 1
Accepted packet length average = 1
Total in-flight flits = 32 (32 measured)
latency change    = 0.0131026
throughput change = 0.0471939
Class 0:
Packet latency average = 40.3219
	minimum = 7
	maximum = 413
Network latency average = 27.1153
	minimum = 7
	maximum = 245
Slowest packet = 24163
Flit latency average = 27.4429
	minimum = 7
	maximum = 245
Slowest flit = 24472
Fragmentation average = 0
	minimum = 0
	maximum = 0
Injected packet rate average = 0.09925
	minimum = 0.084 (at node 11)
	maximum = 0.11 (at node 6)
Accepted packet rate average = 0.0990625
	minimum = 0.087 (at node 13)
	maximum = 0.11 (at node 6)
Injected flit rate average = 0.09925
	minimum = 0.084 (at node 11)
	maximum = 0.11 (at node 6)
Accepted flit rate average= 0.0990625
	minimum = 0.087 (at node 13)
	maximum = 0.11 (at node 6)
Injected packet length average = 1
Accepted packet length average = 1
Total in-flight flits = 44 (44 measured)
latency change    = 0.12848
throughput change = 0.0107256
Class 0:
Packet latency average = 40.2965
	minimum = 7
	maximum = 471
Network latency average = 27.3371
	minimum = 7
	maximum = 274
Slowest packet = 24163
Flit latency average = 27.5534
	minimum = 7
	maximum = 274
Slowest flit = 26042
Fragmentation average = 0
	minimum = 0
	maximum = 0
Injected packet rate average = 0.0982083
	minimum = 0.0873333 (at node 4)
	maximum = 0.107333 (at node 6)
Accepted packet rate average = 0.09825
	minimum = 0.0926667 (at node 9)
	maximum = 0.112 (at node 10)
Injected flit rate average = 0.0982083
	minimum = 0.0873333 (at node 4)
	maximum = 0.107333 (at node 6)
Accepted flit rate average= 0.09825
	minimum = 0.0926667 (at node 9)
	maximum = 0.112 (at node 10)
Injected packet length average = 1
Accepted packet length average = 1
Total in-flight flits = 40 (40 measured)
latency change    = 0.000630007
throughput change = 0.00826972
Class 0:
Packet latency average = 42.6377
	minimum = 7
	maximum = 496
Network latency average = 26.9589
	minimum = 7
	maximum = 276
Slowest packet = 24163
Flit latency average = 27.1243
	minimum = 7
	maximum = 276
Slowest flit = 26108
Fragmentation average = 0
	minimum = 0
	maximum = 0
Injected packet rate average = 0.0992813
	minimum = 0.089 (at node 2)
	maximum = 0.113 (at node 7)
Accepted packet rate average = 0.0993437
	minimum = 0.089 (at node 0)
	maximum = 0.1105 (at node 10)
Injected flit rate average = 0.0992813
	minimum = 0.089 (at node 2)
	maximum = 0.113 (at node 7)
Accepted flit rate average= 0.0993437
	minimum = 0.089 (at node 0)
	maximum = 0.1105 (at node 10)
Injected packet length average = 1
Accepted packet length average = 1
Total in-flight flits = 39 (39 measured)
latency change    = 0.0549083
throughput change = 0.0110098
Class 0:
Packet latency average = 43.1749
	minimum = 7
	maximum = 496
Network latency average = 27.0813
	minimum = 7
	maximum = 276
Slowest packet = 24163
Flit latency average = 27.2123
	minimum = 7
	maximum = 276
Slowest flit = 26108
Fragmentation average = 0
	minimum = 0
	maximum = 0
Injected packet rate average = 0.099525
	minimum = 0.092 (at node 9)
	maximum = 0.1104 (at node 7)
Accepted packet rate average = 0.099375
	minimum = 0.0908 (at node 0)
	maximum = 0.1108 (at node 5)
Injected flit rate average = 0.099525
	minimum = 0.092 (at node 9)
	maximum = 0.1104 (at node 7)
Accepted flit rate average= 0.099375
	minimum = 0.0908 (at node 0)
	maximum = 0.1108 (at node 5)
Injected packet length average = 1
Accepted packet length average = 1
Total in-flight flits = 47 (47 measured)
latency change    = 0.0124428
throughput change = 0.000314465
Class 0:
Packet latency average = 41.8912
	minimum = 7
	maximum = 496
Network latency average = 26.835
	minimum = 7
	maximum = 276
Slowest packet = 24163
Flit latency average = 26.9449
	minimum = 7
	maximum = 276
Slowest flit = 26108
Fragmentation average = 0
	minimum = 0
	maximum = 0
Injected packet rate average = 0.10075
	minimum = 0.093 (at node 4)
	maximum = 0.109667 (at node 7)
Accepted packet rate average = 0.100604
	minimum = 0.0926667 (at node 2)
	maximum = 0.113667 (at node 5)
Injected flit rate average = 0.10075
	minimum = 0.093 (at node 4)
	maximum = 0.109667 (at node 7)
Accepted flit rate average= 0.100604
	minimum = 0.0926667 (at node 2)
	maximum = 0.113667 (at node 5)
Injected packet length average = 1
Accepted packet length average = 1
Total in-flight flits = 48 (48 measured)
latency change    = 0.0306437
throughput change = 0.0122179
Class 0:
Packet latency average = 39.8798
	minimum = 7
	maximum = 496
Network latency average = 26.7438
	minimum = 7
	maximum = 276
Slowest packet = 24163
Flit latency average = 26.8385
	minimum = 7
	maximum = 276
Slowest flit = 26108
Fragmentation average = 0
	minimum = 0
	maximum = 0
Injected packet rate average = 0.100714
	minimum = 0.0945714 (at node 9)
	maximum = 0.109714 (at node 7)
Accepted packet rate average = 0.100821
	minimum = 0.0931429 (at node 7)
	maximum = 0.112571 (at node 5)
Injected flit rate average = 0.100714
	minimum = 0.0945714 (at node 9)
	maximum = 0.109714 (at node 7)
Accepted flit rate average= 0.100821
	minimum = 0.0931429 (at node 7)
	maximum = 0.112571 (at node 5)
Injected packet length average = 1
Accepted packet length average = 1
Total in-flight flits = 35 (35 measured)
latency change    = 0.0504375
throughput change = 0.00215492
Draining all recorded packets ...
Draining remaining packets ...
Time taken is 5210 cycles
Class 0:
Packet latency average = 23.3981
	minimum = 7
	maximum = 94
Network latency average = 23.3796
	minimum = 7
	maximum = 94
Slowest packet = 30283
Flit latency average = 23.3796
	minimum = 7
	maximum = 94
Slowest flit = 30283
Fragmentation average = 0
	minimum = 0
	maximum = 0
Injected packet rate average = 0.099125
	minimum = 0.074 (at node 11)
	maximum = 0.128 (at node 8)
Accepted packet rate average = 0.0945
	minimum = 0.078 (at node 3)
	maximum = 0.138 (at node 15)
Injected flit rate average = 0.099125
	minimum = 0.074 (at node 11)
	maximum = 0.128 (at node 8)
Accepted flit rate average= 0.0945
	minimum = 0.078 (at node 3)
	maximum = 0.138 (at node 15)
Injected packet length average = 1
Accepted packet length average = 1
Total in-flight flits = 37 (0 measured)
latency change    = 1
throughput change = 1
Class 0:
Packet latency average = 23.5405
	minimum = 7
	maximum = 105
Network latency average = 23.506
	minimum = 7
	maximum = 105
Slowest packet = 30811
Flit latency average = 23.506
	minimum = 7
	maximum = 105
Slowest flit = 30811
Fragmentation average = 0
	minimum = 0
	maximum = 0
Injected packet rate average = 0.0966875
	minimum = 0.079 (at node 11)
	maximum = 0.113 (at node 7)
Accepted packet rate average = 0.094125
	minimum = 0.077 (at node 9)
	maximum = 0.119 (at node 15)
Injected flit rate average = 0.0966875
	minimum = 0.079 (at node 11)
	maximum = 0.113 (at node 7)
Accepted flit rate average= 0.094125
	minimum = 0.077 (at node 9)
	maximum = 0.119 (at node 15)
Injected packet length average = 1
Accepted packet length average = 1
Total in-flight flits = 41 (0 measured)
latency change    = 0.0060473
throughput change = 0.00398406
Class 0:
Packet latency average = 26.6814
	minimum = 7
	maximum = 123
Network latency average = 26.1537
	minimum = 7
	maximum = 122
Slowest packet = 31573
Flit latency average = 26.1537
	minimum = 7
	maximum = 122
Slowest flit = 31573
Fragmentation average = 0
	minimum = 0
	maximum = 0
Injected packet rate average = 0.09925
	minimum = 0.058 (at node 6)
	maximum = 0.134 (at node 1)
Accepted packet rate average = 0.09925
	minimum = 0.07 (at node 4)
	maximum = 0.138 (at node 12)
Injected flit rate average = 0.09925
	minimum = 0.058 (at node 6)
	maximum = 0.134 (at node 1)
Accepted flit rate average= 0.09925
	minimum = 0.07 (at node 4)
	maximum = 0.138 (at node 12)
Injected packet length average = 1
Accepted packet length average = 1
Total in-flight flits = 41 (0 measured)
latency change    = 0.117717
throughput change = 0.0516373
Warmed up ...Time used is 1500 cycles
Class 0:
Packet latency average = 22.9208
	minimum = 7
	maximum = 102
Network latency average = 22.8506
	minimum = 7
	maximum = 94
Slowest packet = 32958
Flit latency average = 22.9322
	minimum = 7
	maximum = 94
Slowest flit = 32958
Fragmentation average = 0
	minimum = 0
	maximum = 0
Injected packet rate average = 0.098875
	minimum = 0.078 (at node 9)
	maximum = 0.12 (at node 7)
Accepted packet rate average = 0.101375
	minimum = 0.072 (at node 4)
	maximum = 0.136 (at node 1)
Injected flit rate average = 0.098875
	minimum = 0.078 (at node 9)
	maximum = 0.12 (at node 7)
Accepted flit rate average= 0.101375
	minimum = 0.072 (at node 4)
	maximum = 0.136 (at node 1)
Injected packet length average = 1
Accepted packet length average = 1
Total in-flight flits = 21 (21 measured)
latency change    = 0.164069
throughput change = 0.0209618
Class 0:
Packet latency average = 23.4218
	minimum = 7
	maximum = 102
Network latency average = 23.3499
	minimum = 7
	maximum = 95
Slowest packet = 32958
Flit latency average = 23.378
	minimum = 7
	maximum = 95
Slowest flit = 33281
Fragmentation average = 0
	minimum = 0
	maximum = 0
Injected packet rate average = 0.1015
	minimum = 0.08 (at node 9)
	maximum = 0.12 (at node 0)
Accepted packet rate average = 0.101688
	minimum = 0.079 (at node 4)
	maximum = 0.119 (at node 9)
Injected flit rate average = 0.1015
	minimum = 0.08 (at node 9)
	maximum = 0.12 (at node 0)
Accepted flit rate average= 0.101688
	minimum = 0.079 (at node 4)
	maximum = 0.119 (at node 9)
Injected packet length average = 1
Accepted packet length average = 1
Total in-flight flits = 38 (38 measured)
latency change    = 0.0213919
throughput change = 0.00307314
Class 0:
Packet latency average = 25.0169
	minimum = 7
	maximum = 234
Network latency average = 24.2027
	minimum = 7
	maximum = 213
Slowest packet = 34172
Flit latency average = 24.2071
	minimum = 7
	maximum = 213
Slowest flit = 34172
Fragmentation average = 0
	minimum = 0
	maximum = 0
Injected packet rate average = 0.100583
	minimum = 0.0833333 (at node 9)
	maximum = 0.110667 (at node 0)
Accepted packet rate average = 0.100375
	minimum = 0.0846667 (at node 2)
	maximum = 0.114 (at node 12)
Injected flit rate average = 0.100583
	minimum = 0.0833333 (at node 9)
	maximum = 0.110667 (at node 0)
Accepted flit rate average= 0.100375
	minimum = 0.0846667 (at node 2)
	maximum = 0.114 (at node 12)
Injected packet length average = 1
Accepted packet length average = 1
Total in-flight flits = 46 (46 measured)
latency change    = 0.06376
throughput change = 0.013076
Class 0:
Packet latency average = 26.4388
	minimum = 7
	maximum = 234
Network latency average = 25.0315
	minimum = 7
	maximum = 213
Slowest packet = 34172
Flit latency average = 25.0243
	minimum = 7
	maximum = 213
Slowest flit = 34172
Fragmentation average = 0
	minimum = 0
	maximum = 0
Injected packet rate average = 0.101719
	minimum = 0.095 (at node 12)
	maximum = 0.113 (at node 10)
Accepted packet rate average = 0.101406
	minimum = 0.0865 (at node 11)
	maximum = 0.1135 (at node 12)
Injected flit rate average = 0.101719
	minimum = 0.095 (at node 12)
	maximum = 0.113 (at node 10)
Accepted flit rate average= 0.101406
	minimum = 0.0865 (at node 11)
	maximum = 0.1135 (at node 12)
Injected packet length average = 1
Accepted packet length average = 1
Total in-flight flits = 52 (52 measured)
latency change    = 0.0537821
throughput change = 0.0101695
Class 0:
Packet latency average = 25.9915
	minimum = 7
	maximum = 234
Network latency average = 24.6936
	minimum = 7
	maximum = 213
Slowest packet = 34172
Flit latency average = 24.6912
	minimum = 7
	maximum = 213
Slowest flit = 34172
Fragmentation average = 0
	minimum = 0
	maximum = 0
Injected packet rate average = 0.101225
	minimum = 0.0944 (at node 9)
	maximum = 0.11 (at node 6)
Accepted packet rate average = 0.10145
	minimum = 0.0872 (at node 2)
	maximum = 0.1136 (at node 1)
Injected flit rate average = 0.101225
	minimum = 0.0944 (at node 9)
	maximum = 0.11 (at node 6)
Accepted flit rate average= 0.10145
	minimum = 0.0872 (at node 2)
	maximum = 0.1136 (at node 1)
Injected packet length average = 1
Accepted packet length average = 1
Total in-flight flits = 32 (32 measured)
latency change    = 0.0172091
throughput change = 0.000431247
Class 0:
Packet latency average = 25.7452
	minimum = 7
	maximum = 234
Network latency average = 24.6184
	minimum = 7
	maximum = 213
Slowest packet = 34172
Flit latency average = 24.6171
	minimum = 7
	maximum = 213
Slowest flit = 34172
Fragmentation average = 0
	minimum = 0
	maximum = 0
Injected packet rate average = 0.100604
	minimum = 0.093 (at node 14)
	maximum = 0.111333 (at node 10)
Accepted packet rate average = 0.100542
	minimum = 0.087 (at node 2)
	maximum = 0.109667 (at node 0)
Injected flit rate average = 0.100604
	minimum = 0.093 (at node 14)
	maximum = 0.111333 (at node 10)
Accepted flit rate average= 0.100542
	minimum = 0.087 (at node 2)
	maximum = 0.109667 (at node 0)
Injected packet length average = 1
Accepted packet length average = 1
Total in-flight flits = 44 (44 measured)
latency change    = 0.00956644
throughput change = 0.0090344
Class 0:
Packet latency average = 26.5566
	minimum = 7
	maximum = 284
Network latency average = 24.8868
	minimum = 7
	maximum = 256
Slowest packet = 37202
Flit latency average = 24.8837
	minimum = 7
	maximum = 256
Slowest flit = 37202
Fragmentation average = 0
	minimum = 0
	maximum = 0
Injected packet rate average = 0.100411
	minimum = 0.0937143 (at node 13)
	maximum = 0.110571 (at node 10)
Accepted packet rate average = 0.100411
	minimum = 0.0882857 (at node 2)
	maximum = 0.109429 (at node 3)
Injected flit rate average = 0.100411
	minimum = 0.0937143 (at node 13)
	maximum = 0.110571 (at node 10)
Accepted flit rate average= 0.100411
	minimum = 0.0882857 (at node 2)
	maximum = 0.109429 (at node 3)
Injected packet length average = 1
Accepted packet length average = 1
Total in-flight flits = 42 (42 measured)
latency change    = 0.0305523
throughput change = 0.00130417
Draining all recorded packets ...
Draining remaining packets ...
Time taken is 5473 cycles
Class 0:
Packet latency average = 21.8146
	minimum = 7
	maximum = 106
Network latency average = 21.8133
	minimum = 7
	maximum = 106
Slowest packet = 38771
Flit latency average = 21.8133
	minimum = 7
	maximum = 106
Slowest flit = 38771
Fragmentation average = 0
	minimum = 0
	maximum = 0
Injected packet rate average = 0.099375
	minimum = 0.074 (at node 14)
	maximum = 0.126 (at node 10)
Accepted packet rate average = 0.09575
	minimum = 0.07 (at node 9)
	maximum = 0.114 (at node 14)
Injected flit rate average = 0.099375
	minimum = 0.074 (at node 14)
	maximum = 0.126 (at node 10)
Accepted flit rate average= 0.09575
	minimum = 0.07 (at node 9)
	maximum = 0.114 (at node 14)
Injected packet length average = 1
Accepted packet length average = 1
Total in-flight flits = 29 (0 measured)
latency change    = 1
throughput change = 1
Class 0:
Packet latency average = 23.3274
	minimum = 7
	maximum = 153
Network latency average = 23.2996
	minimum = 7
	maximum = 153
Slowest packet = 39867
Flit latency average = 23.2996
	minimum = 7
	maximum = 153
Slowest flit = 39867
Fragmentation average = 0
	minimum = 0
	maximum = 0
Injected packet rate average = 0.100562
	minimum = 0.082 (at node 14)
	maximum = 0.125 (at node 10)
Accepted packet rate average = 0.0986875
	minimum = 0.079 (at node 7)
	maximum = 0.116 (at node 10)
Injected flit rate average = 0.100562
	minimum = 0.082 (at node 14)
	maximum = 0.125 (at node 10)
Accepted flit rate average= 0.0986875
	minimum = 0.079 (at node 7)
	maximum = 0.116 (at node 10)
Injected packet length average = 1
Accepted packet length average = 1
Total in-flight flits = 30 (0 measured)
latency change    = 0.0648508
throughput change = 0.0297657
Class 0:
Packet latency average = 22.2778
	minimum = 7
	maximum = 56
Network latency average = 22.27
	minimum = 7
	maximum = 56
Slowest packet = 40754
Flit latency average = 22.27
	minimum = 7
	maximum = 56
Slowest flit = 40754
Fragmentation average = 0
	minimum = 0
	maximum = 0
Injected packet rate average = 0.095875
	minimum = 0.068 (at node 3)
	maximum = 0.142 (at node 15)
Accepted packet rate average = 0.09675
	minimum = 0.082 (at node 12)
	maximum = 0.12 (at node 8)
Injected flit rate average = 0.095875
	minimum = 0.068 (at node 3)
	maximum = 0.142 (at node 15)
Accepted flit rate average= 0.09675
	minimum = 0.082 (at node 12)
	maximum = 0.12 (at node 8)
Injected packet length average = 1
Accepted packet length average = 1
Total in-flight flits = 23 (0 measured)
latency change    = 0.0471162
throughput change = 0.0200258
Warmed up ...Time used is 1500 cycles
Class 0:
Packet latency average = 22.7984
	minimum = 7
	maximum = 85
Network latency average = 22.7866
	minimum = 7
	maximum = 85
Slowest packet = 41520
Flit latency average = 22.8747
	minimum = 7
	maximum = 85
Slowest flit = 41520
Fragmentation average = 0
	minimum = 0
	maximum = 0
Injected packet rate average = 0.09825
	minimum = 0.074 (at node 7)
	maximum = 0.12 (at node 8)
Accepted packet rate average = 0.09775
	minimum = 0.082 (at node 15)
	maximum = 0.122 (at node 2)
Injected flit rate average = 0.09825
	minimum = 0.074 (at node 7)
	maximum = 0.12 (at node 8)
Accepted flit rate average= 0.09775
	minimum = 0.082 (at node 15)
	maximum = 0.122 (at node 2)
Injected packet length average = 1
Accepted packet length average = 1
Total in-flight flits = 27 (27 measured)
latency change    = 0.0228367
throughput change = 0.0102302
Class 0:
Packet latency average = 24.2145
	minimum = 7
	maximum = 133
Network latency average = 23.8669
	minimum = 7
	maximum = 103
Slowest packet = 42082
Flit latency average = 23.8943
	minimum = 7
	maximum = 103
Slowest flit = 42402
Fragmentation average = 0
	minimum = 0
	maximum = 0
Injected packet rate average = 0.101312
	minimum = 0.086 (at node 4)
	maximum = 0.119 (at node 15)
Accepted packet rate average = 0.1005
	minimum = 0.087 (at node 1)
	maximum = 0.119 (at node 5)
Injected flit rate average = 0.101312
	minimum = 0.086 (at node 4)
	maximum = 0.119 (at node 15)
Accepted flit rate average= 0.1005
	minimum = 0.087 (at node 1)
	maximum = 0.119 (at node 5)
Injected packet length average = 1
Accepted packet length average = 1
Total in-flight flits = 36 (36 measured)
latency change    = 0.0584811
throughput change = 0.0273632
Class 0:
Packet latency average = 23.9959
	minimum = 7
	maximum = 133
Network latency average = 23.7319
	minimum = 7
	maximum = 129
Slowest packet = 42082
Flit latency average = 23.7512
	minimum = 7
	maximum = 129
Slowest flit = 42420
Fragmentation average = 0
	minimum = 0
	maximum = 0
Injected packet rate average = 0.102083
	minimum = 0.088 (at node 7)
	maximum = 0.117333 (at node 13)
Accepted packet rate average = 0.101667
	minimum = 0.0846667 (at node 7)
	maximum = 0.117333 (at node 5)
Injected flit rate average = 0.102083
	minimum = 0.088 (at node 7)
	maximum = 0.117333 (at node 13)
Accepted flit rate average= 0.101667
	minimum = 0.0846667 (at node 7)
	maximum = 0.117333 (at node 5)
Injected packet length average = 1
Accepted packet length average = 1
Total in-flight flits = 33 (33 measured)
latency change    = 0.00911192
throughput change = 0.0114754
Class 0:
Packet latency average = 24.5681
	minimum = 7
	maximum = 224
Network latency average = 23.9768
	minimum = 7
	maximum = 179
Slowest packet = 43772
Flit latency average = 23.9896
	minimum = 7
	maximum = 179
Slowest flit = 43772
Fragmentation average = 0
	minimum = 0
	maximum = 0
Injected packet rate average = 0.102219
	minimum = 0.0905 (at node 10)
	maximum = 0.1145 (at node 13)
Accepted packet rate average = 0.101938
	minimum = 0.0885 (at node 1)
	maximum = 0.1165 (at node 5)
Injected flit rate average = 0.102219
	minimum = 0.0905 (at node 10)
	maximum = 0.1145 (at node 13)
Accepted flit rate average= 0.101938
	minimum = 0.0885 (at node 1)
	maximum = 0.1165 (at node 5)
Injected packet length average = 1
Accepted packet length average = 1
Total in-flight flits = 33 (33 measured)
latency change    = 0.023291
throughput change = 0.00265686
Class 0:
Packet latency average = 26.1053
	minimum = 7
	maximum = 301
Network latency average = 24.5817
	minimum = 7
	maximum = 254
Slowest packet = 43772
Flit latency average = 24.5885
	minimum = 7
	maximum = 254
Slowest flit = 44349
Fragmentation average = 0
	minimum = 0
	maximum = 0
Injected packet rate average = 0.102075
	minimum = 0.0912 (at node 10)
	maximum = 0.1144 (at node 3)
Accepted packet rate average = 0.101525
	minimum = 0.0912 (at node 4)
	maximum = 0.1136 (at node 5)
Injected flit rate average = 0.102075
	minimum = 0.0912 (at node 10)
	maximum = 0.1144 (at node 3)
Accepted flit rate average= 0.101525
	minimum = 0.0912 (at node 4)
	maximum = 0.1136 (at node 5)
Injected packet length average = 1
Accepted packet length average = 1
Total in-flight flits = 45 (45 measured)
latency change    = 0.0588837
throughput change = 0.00406304
Class 0:
Packet latency average = 26.8448
	minimum = 7
	maximum = 301
Network latency average = 24.7859
	minimum = 7
	maximum = 254
Slowest packet = 43772
Flit latency average = 24.7906
	minimum = 7
	maximum = 254
Slowest flit = 44349
Fragmentation average = 0
	minimum = 0
	maximum = 0
Injected packet rate average = 0.101229
	minimum = 0.0886667 (at node 10)
	maximum = 0.116 (at node 3)
Accepted packet rate average = 0.101187
	minimum = 0.0913333 (at node 4)
	maximum = 0.113667 (at node 5)
Injected flit rate average = 0.101229
	minimum = 0.0886667 (at node 10)
	maximum = 0.116 (at node 3)
Accepted flit rate average= 0.101187
	minimum = 0.0913333 (at node 4)
	maximum = 0.113667 (at node 5)
Injected packet length average = 1
Accepted packet length average = 1
Total in-flight flits = 25 (25 measured)
latency change    = 0.0275509
throughput change = 0.00333539
Class 0:
Packet latency average = 26.5333
	minimum = 7
	maximum = 301
Network latency average = 24.6037
	minimum = 7
	maximum = 254
Slowest packet = 43772
Flit latency average = 24.6085
	minimum = 7
	maximum = 254
Slowest flit = 44349
Fragmentation average = 0
	minimum = 0
	maximum = 0
Injected packet rate average = 0.100518
	minimum = 0.0882857 (at node 10)
	maximum = 0.113143 (at node 13)
Accepted packet rate average = 0.0998571
	minimum = 0.0882857 (at node 4)
	maximum = 0.11 (at node 5)
Injected flit rate average = 0.100518
	minimum = 0.0882857 (at node 10)
	maximum = 0.113143 (at node 13)
Accepted flit rate average= 0.0998571
	minimum = 0.0882857 (at node 4)
	maximum = 0.11 (at node 5)
Injected packet length average = 1
Accepted packet length average = 1
Total in-flight flits = 62 (62 measured)
latency change    = 0.0117415
throughput change = 0.0133226
Draining all recorded packets ...
Draining remaining packets ...
Time taken is 5185 cycles
Class 0:
Packet latency average = 29.633
	minimum = 7
	maximum = 202
Network latency average = 27.6802
	minimum = 7
	maximum = 175
Slowest packet = 47248
Flit latency average = 27.6802
	minimum = 7
	maximum = 175
Slowest flit = 47248
Fragmentation average = 0
	minimum = 0
	maximum = 0
Injected packet rate average = 0.1005
	minimum = 0.064 (at node 10)
	maximum = 0.134 (at node 6)
Accepted packet rate average = 0.095375
	minimum = 0.076 (at node 7)
	maximum = 0.12 (at node 13)
Injected flit rate average = 0.1005
	minimum = 0.064 (at node 10)
	maximum = 0.134 (at node 6)
Accepted flit rate average= 0.095375
	minimum = 0.076 (at node 7)
	maximum = 0.12 (at node 13)
Injected packet length average = 1
Accepted packet length average = 1
Total in-flight flits = 43 (0 measured)
latency change    = 1
throughput change = 1
Class 0:
Packet latency average = 38.5428
	minimum = 7
	maximum = 427
Network latency average = 27.8092
	minimum = 7
	maximum = 235
Slowest packet = 47331
Flit latency average = 27.8092
	minimum = 7
	maximum = 235
Slowest flit = 47331
Fragmentation average = 0
	minimum = 0
	maximum = 0
Injected packet rate average = 0.104313
	minimum = 0.083 (at node 10)
	maximum = 0.123 (at node 6)
Accepted packet rate average = 0.101562
	minimum = 0.082 (at node 6)
	maximum = 0.12 (at node 15)
Injected flit rate average = 0.104313
	minimum = 0.083 (at node 10)
	maximum = 0.123 (at node 6)
Accepted flit rate average= 0.101562
	minimum = 0.082 (at node 6)
	maximum = 0.12 (at node 15)
Injected packet length average = 1
Accepted packet length average = 1
Total in-flight flits = 45 (0 measured)
latency change    = 0.231165
throughput change = 0.0609231
Class 0:
Packet latency average = 40.2768
	minimum = 7
	maximum = 411
Network latency average = 27.1913
	minimum = 7
	maximum = 262
Slowest packet = 48474
Flit latency average = 27.1913
	minimum = 7
	maximum = 262
Slowest flit = 48666
Fragmentation average = 0
	minimum = 0
	maximum = 0
Injected packet rate average = 0.097625
	minimum = 0.072 (at node 4)
	maximum = 0.126 (at node 8)
Accepted packet rate average = 0.098
	minimum = 0.08 (at node 10)
	maximum = 0.114 (at node 4)
Injected flit rate average = 0.097625
	minimum = 0.072 (at node 4)
	maximum = 0.126 (at node 8)
Accepted flit rate average= 0.098
	minimum = 0.08 (at node 10)
	maximum = 0.114 (at node 4)
Injected packet length average = 1
Accepted packet length average = 1
Total in-flight flits = 43 (0 measured)
latency change    = 0.0430525
throughput change = 0.036352
Warmed up ...Time used is 1500 cycles
Class 0:
Packet latency average = 42.4037
	minimum = 7
	maximum = 458
Network latency average = 25.7077
	minimum = 7
	maximum = 166
Slowest packet = 49380
Flit latency average = 27.964
	minimum = 7
	maximum = 223
Slowest flit = 49212
Fragmentation average = 0
	minimum = 0
	maximum = 0
Injected packet rate average = 0.102
	minimum = 0.086 (at node 4)
	maximum = 0.114 (at node 1)
Accepted packet rate average = 0.10075
	minimum = 0.07 (at node 14)
	maximum = 0.12 (at node 12)
Injected flit rate average = 0.102
	minimum = 0.086 (at node 4)
	maximum = 0.114 (at node 1)
Accepted flit rate average= 0.10075
	minimum = 0.07 (at node 14)
	maximum = 0.12 (at node 12)
Injected packet length average = 1
Accepted packet length average = 1
Total in-flight flits = 52 (52 measured)
latency change    = 0.050158
throughput change = 0.0272953
Class 0:
Packet latency average = 35.2837
	minimum = 7
	maximum = 458
Network latency average = 24.8982
	minimum = 7
	maximum = 166
Slowest packet = 49380
Flit latency average = 26.0458
	minimum = 7
	maximum = 223
Slowest flit = 49212
Fragmentation average = 0
	minimum = 0
	maximum = 0
Injected packet rate average = 0.101125
	minimum = 0.088 (at node 4)
	maximum = 0.118 (at node 1)
Accepted packet rate average = 0.100937
	minimum = 0.084 (at node 14)
	maximum = 0.113 (at node 3)
Injected flit rate average = 0.101125
	minimum = 0.088 (at node 4)
	maximum = 0.118 (at node 1)
Accepted flit rate average= 0.100937
	minimum = 0.084 (at node 14)
	maximum = 0.113 (at node 3)
Injected packet length average = 1
Accepted packet length average = 1
Total in-flight flits = 44 (44 measured)
latency change    = 0.201792
throughput change = 0.00185759
Class 0:
Packet latency average = 31.6623
	minimum = 7
	maximum = 458
Network latency average = 24.7436
	minimum = 7
	maximum = 166
Slowest packet = 49380
Flit latency average = 25.5128
	minimum = 7
	maximum = 223
Slowest flit = 49212
Fragmentation average = 0
	minimum = 0
	maximum = 0
Injected packet rate average = 0.100625
	minimum = 0.0926667 (at node 8)
	maximum = 0.116 (at node 1)
Accepted packet rate average = 0.10075
	minimum = 0.0913333 (at node 2)
	maximum = 0.112 (at node 3)
Injected flit rate average = 0.100625
	minimum = 0.0926667 (at node 8)
	maximum = 0.116 (at node 1)
Accepted flit rate average= 0.10075
	minimum = 0.0913333 (at node 2)
	maximum = 0.112 (at node 3)
Injected packet length average = 1
Accepted packet length average = 1
Total in-flight flits = 38 (38 measured)
latency change    = 0.114376
throughput change = 0.00186104
Class 0:
Packet latency average = 29.8022
	minimum = 7
	maximum = 458
Network latency average = 24.6469
	minimum = 7
	maximum = 166
Slowest packet = 49380
Flit latency average = 25.2227
	minimum = 7
	maximum = 223
Slowest flit = 49212
Fragmentation average = 0
	minimum = 0
	maximum = 0
Injected packet rate average = 0.101437
	minimum = 0.0935 (at node 8)
	maximum = 0.119 (at node 1)
Accepted packet rate average = 0.101187
	minimum = 0.094 (at node 11)
	maximum = 0.109 (at node 0)
Injected flit rate average = 0.101437
	minimum = 0.0935 (at node 8)
	maximum = 0.119 (at node 1)
Accepted flit rate average= 0.101187
	minimum = 0.094 (at node 11)
	maximum = 0.109 (at node 0)
Injected packet length average = 1
Accepted packet length average = 1
Total in-flight flits = 50 (50 measured)
latency change    = 0.0624157
throughput change = 0.00432366
Class 0:
Packet latency average = 28.8916
	minimum = 7
	maximum = 458
Network latency average = 24.7146
	minimum = 7
	maximum = 166
Slowest packet = 49380
Flit latency average = 25.1776
	minimum = 7
	maximum = 223
Slowest flit = 49212
Fragmentation average = 0
	minimum = 0
	maximum = 0
Injected packet rate average = 0.100325
	minimum = 0.0904 (at node 8)
	maximum = 0.116 (at node 1)
Accepted packet rate average = 0.1005
	minimum = 0.0936 (at node 7)
	maximum = 0.1064 (at node 15)
Injected flit rate average = 0.100325
	minimum = 0.0904 (at node 8)
	maximum = 0.116 (at node 1)
Accepted flit rate average= 0.1005
	minimum = 0.0936 (at node 7)
	maximum = 0.1064 (at node 15)
Injected packet length average = 1
Accepted packet length average = 1
Total in-flight flits = 34 (34 measured)
latency change    = 0.0315165
throughput change = 0.0068408
Class 0:
Packet latency average = 28.2095
	minimum = 7
	maximum = 458
Network latency average = 24.7049
	minimum = 7
	maximum = 166
Slowest packet = 49380
Flit latency average = 25.0927
	minimum = 7
	maximum = 223
Slowest flit = 49212
Fragmentation average = 0
	minimum = 0
	maximum = 0
Injected packet rate average = 0.1
	minimum = 0.0883333 (at node 8)
	maximum = 0.111 (at node 1)
Accepted packet rate average = 0.100021
	minimum = 0.096 (at node 3)
	maximum = 0.108333 (at node 0)
Injected flit rate average = 0.1
	minimum = 0.0883333 (at node 8)
	maximum = 0.111 (at node 1)
Accepted flit rate average= 0.100021
	minimum = 0.096 (at node 3)
	maximum = 0.108333 (at node 0)
Injected packet length average = 1
Accepted packet length average = 1
Total in-flight flits = 41 (41 measured)
latency change    = 0.0241792
throughput change = 0.00479067
Class 0:
Packet latency average = 28.3563
	minimum = 7
	maximum = 458
Network latency average = 25.0681
	minimum = 7
	maximum = 229
Slowest packet = 49380
Flit latency average = 25.3964
	minimum = 7
	maximum = 229
Slowest flit = 53992
Fragmentation average = 0
	minimum = 0
	maximum = 0
Injected packet rate average = 0.100429
	minimum = 0.0917143 (at node 8)
	maximum = 0.111143 (at node 1)
Accepted packet rate average = 0.100411
	minimum = 0.0957143 (at node 3)
	maximum = 0.107714 (at node 0)
Injected flit rate average = 0.100429
	minimum = 0.0917143 (at node 8)
	maximum = 0.111143 (at node 1)
Accepted flit rate average= 0.100411
	minimum = 0.0957143 (at node 3)
	maximum = 0.107714 (at node 0)
Injected packet length average = 1
Accepted packet length average = 1
Total in-flight flits = 42 (42 measured)
latency change    = 0.00517454
throughput change = 0.00388286
Draining all recorded packets ...
Draining remaining packets ...
Time taken is 5253 cycles
Class 0:
Packet latency average = 26.6112
	minimum = 7
	maximum = 211
Network latency average = 25.2159
	minimum = 7
	maximum = 201
Slowest packet = 55568
Flit latency average = 25.2159
	minimum = 7
	maximum = 201
Slowest flit = 55568
Fragmentation average = 0
	minimum = 0
	maximum = 0
Injected packet rate average = 0.101125
	minimum = 0.078 (at node 11)
	maximum = 0.128 (at node 3)
Accepted packet rate average = 0.096125
	minimum = 0.066 (at node 3)
	maximum = 0.118 (at node 4)
Injected flit rate average = 0.101125
	minimum = 0.078 (at node 11)
	maximum = 0.128 (at node 3)
Accepted flit rate average= 0.096125
	minimum = 0.066 (at node 3)
	maximum = 0.118 (at node 4)
Injected packet length average = 1
Accepted packet length average = 1
Total in-flight flits = 40 (0 measured)
latency change    = 1
throughput change = 1
Class 0:
Packet latency average = 27.5843
	minimum = 7
	maximum = 380
Network latency average = 26.1706
	minimum = 7
	maximum = 345
Slowest packet = 56312
Flit latency average = 26.1706
	minimum = 7
	maximum = 345
Slowest flit = 56312
Fragmentation average = 0
	minimum = 0
	maximum = 0
Injected packet rate average = 0.101437
	minimum = 0.071 (at node 12)
	maximum = 0.129 (at node 3)
Accepted packet rate average = 0.0981875
	minimum = 0.081 (at node 10)
	maximum = 0.124 (at node 4)
Injected flit rate average = 0.101437
	minimum = 0.071 (at node 12)
	maximum = 0.129 (at node 3)
Accepted flit rate average= 0.0981875
	minimum = 0.081 (at node 10)
	maximum = 0.124 (at node 4)
Injected packet length average = 1
Accepted packet length average = 1
Total in-flight flits = 53 (0 measured)
latency change    = 0.0352794
throughput change = 0.0210057
Class 0:
Packet latency average = 48.5909
	minimum = 7
	maximum = 573
Network latency average = 28.4293
	minimum = 7
	maximum = 376
Slowest packet = 56335
Flit latency average = 28.4293
	minimum = 7
	maximum = 376
Slowest flit = 56335
Fragmentation average = 0
	minimum = 0
	maximum = 0
Injected packet rate average = 0.0975
	minimum = 0.078 (at node 12)
	maximum = 0.118 (at node 6)
Accepted packet rate average = 0.099
	minimum = 0.074 (at node 1)
	maximum = 0.12 (at node 4)
Injected flit rate average = 0.0975
	minimum = 0.078 (at node 12)
	maximum = 0.118 (at node 6)
Accepted flit rate average= 0.099
	minimum = 0.074 (at node 1)
	maximum = 0.12 (at node 4)
Injected packet length average = 1
Accepted packet length average = 1
Total in-flight flits = 41 (0 measured)
latency change    = 0.432315
throughput change = 0.00820707
Warmed up ...Time used is 1500 cycles
Class 0:
Packet latency average = 56.2652
	minimum = 7
	maximum = 601
Network latency average = 23.876
	minimum = 7
	maximum = 136
Slowest packet = 57690
Flit latency average = 25.4981
	minimum = 7
	maximum = 197
Slowest flit = 57611
Fragmentation average = 0
	minimum = 0
	maximum = 0
Injected packet rate average = 0.100625
	minimum = 0.086 (at node 15)
	maximum = 0.126 (at node 12)
Accepted packet rate average = 0.099875
	minimum = 0.08 (at node 6)
	maximum = 0.124 (at node 4)
Injected flit rate average = 0.100625
	minimum = 0.086 (at node 15)
	maximum = 0.126 (at node 12)
Accepted flit rate average= 0.099875
	minimum = 0.08 (at node 6)
	maximum = 0.124 (at node 4)
Injected packet length average = 1
Accepted packet length average = 1
Total in-flight flits = 48 (48 measured)
latency change    = 0.136395
throughput change = 0.00876095
Class 0:
Packet latency average = 53.4379
	minimum = 7
	maximum = 630
Network latency average = 26.2271
	minimum = 7
	maximum = 209
Slowest packet = 57690
Flit latency average = 26.9873
	minimum = 7
	maximum = 209
Slowest flit = 58619
Fragmentation average = 0
	minimum = 0
	maximum = 0
Injected packet rate average = 0.098625
	minimum = 0.088 (at node 10)
	maximum = 0.113 (at node 6)
Accepted packet rate average = 0.098625
	minimum = 0.086 (at node 12)
	maximum = 0.115 (at node 9)
Injected flit rate average = 0.098625
	minimum = 0.088 (at node 10)
	maximum = 0.113 (at node 6)
Accepted flit rate average= 0.098625
	minimum = 0.086 (at node 12)
	maximum = 0.115 (at node 9)
Injected packet length average = 1
Accepted packet length average = 1
Total in-flight flits = 41 (41 measured)
latency change    = 0.0529083
throughput change = 0.0126743
Class 0:
Packet latency average = 54.4541
	minimum = 7
	maximum = 630
Network latency average = 26.208
	minimum = 7
	maximum = 209
Slowest packet = 57690
Flit latency average = 26.712
	minimum = 7
	maximum = 209
Slowest flit = 58619
Fragmentation average = 0
	minimum = 0
	maximum = 0
Injected packet rate average = 0.0990417
	minimum = 0.0853333 (at node 15)
	maximum = 0.119333 (at node 12)
Accepted packet rate average = 0.09925
	minimum = 0.0826667 (at node 12)
	maximum = 0.118667 (at node 6)
Injected flit rate average = 0.0990417
	minimum = 0.0853333 (at node 15)
	maximum = 0.119333 (at node 12)
Accepted flit rate average= 0.09925
	minimum = 0.0826667 (at node 12)
	maximum = 0.118667 (at node 6)
Injected packet length average = 1
Accepted packet length average = 1
Total in-flight flits = 36 (36 measured)
latency change    = 0.0186618
throughput change = 0.00629723
Class 0:
Packet latency average = 49.9416
	minimum = 7
	maximum = 630
Network latency average = 26.4519
	minimum = 7
	maximum = 345
Slowest packet = 57690
Flit latency average = 26.8287
	minimum = 7
	maximum = 345
Slowest flit = 60280
Fragmentation average = 0
	minimum = 0
	maximum = 0
Injected packet rate average = 0.098875
	minimum = 0.0885 (at node 7)
	maximum = 0.1115 (at node 6)
Accepted packet rate average = 0.0987187
	minimum = 0.0845 (at node 5)
	maximum = 0.1125 (at node 6)
Injected flit rate average = 0.098875
	minimum = 0.0885 (at node 7)
	maximum = 0.1115 (at node 6)
Accepted flit rate average= 0.0987187
	minimum = 0.0845 (at node 5)
	maximum = 0.1125 (at node 6)
Injected packet length average = 1
Accepted packet length average = 1
Total in-flight flits = 47 (47 measured)
latency change    = 0.0903545
throughput change = 0.00538145
Class 0:
Packet latency average = 49.911
	minimum = 7
	maximum = 647
Network latency average = 26.9383
	minimum = 7
	maximum = 478
Slowest packet = 57690
Flit latency average = 27.2338
	minimum = 7
	maximum = 478
Slowest flit = 60304
Fragmentation average = 0
	minimum = 0
	maximum = 0
Injected packet rate average = 0.09905
	minimum = 0.0924 (at node 5)
	maximum = 0.1096 (at node 6)
Accepted packet rate average = 0.099025
	minimum = 0.0872 (at node 5)
	maximum = 0.1144 (at node 9)
Injected flit rate average = 0.09905
	minimum = 0.0924 (at node 5)
	maximum = 0.1096 (at node 6)
Accepted flit rate average= 0.099025
	minimum = 0.0872 (at node 5)
	maximum = 0.1144 (at node 9)
Injected packet length average = 1
Accepted packet length average = 1
Total in-flight flits = 43 (43 measured)
latency change    = 0.000614291
throughput change = 0.00309265
Class 0:
Packet latency average = 51.1411
	minimum = 7
	maximum = 806
Network latency average = 26.9159
	minimum = 7
	maximum = 478
Slowest packet = 57690
Flit latency average = 27.1626
	minimum = 7
	maximum = 478
Slowest flit = 60304
Fragmentation average = 0
	minimum = 0
	maximum = 0
Injected packet rate average = 0.0990417
	minimum = 0.0916667 (at node 5)
	maximum = 0.111 (at node 6)
Accepted packet rate average = 0.0988958
	minimum = 0.086 (at node 12)
	maximum = 0.110333 (at node 9)
Injected flit rate average = 0.0990417
	minimum = 0.0916667 (at node 5)
	maximum = 0.111 (at node 6)
Accepted flit rate average= 0.0988958
	minimum = 0.086 (at node 12)
	maximum = 0.110333 (at node 9)
Injected packet length average = 1
Accepted packet length average = 1
Total in-flight flits = 48 (48 measured)
latency change    = 0.0240536
throughput change = 0.00130609
Class 0:
Packet latency average = 54.5643
	minimum = 7
	maximum = 836
Network latency average = 26.8226
	minimum = 7
	maximum = 478
Slowest packet = 57690
Flit latency average = 27.0344
	minimum = 7
	maximum = 478
Slowest flit = 60304
Fragmentation average = 0
	minimum = 0
	maximum = 0
Injected packet rate average = 0.099125
	minimum = 0.0928571 (at node 7)
	maximum = 0.106857 (at node 6)
Accepted packet rate average = 0.0990536
	minimum = 0.0877143 (at node 12)
	maximum = 0.111143 (at node 9)
Injected flit rate average = 0.099125
	minimum = 0.0928571 (at node 7)
	maximum = 0.106857 (at node 6)
Accepted flit rate average= 0.0990536
	minimum = 0.0877143 (at node 12)
	maximum = 0.111143 (at node 9)
Injected packet length average = 1
Accepted packet length average = 1
Total in-flight flits = 45 (45 measured)
latency change    = 0.0627369
throughput change = 0.00159245
Draining all recorded packets ...
Draining remaining packets ...
Time taken is 5490 cycles
Class 0:
Packet latency average = 22.3675
	minimum = 7
	maximum = 112
Network latency average = 22.3306
	minimum = 7
	maximum = 112
Slowest packet = 64427
Flit latency average = 22.3306
	minimum = 7
	maximum = 112
Slowest flit = 64427
Fragmentation average = 0
	minimum = 0
	maximum = 0
Injected packet rate average = 0.096625
	minimum = 0.072 (at node 10)
	maximum = 0.118 (at node 0)
Accepted packet rate average = 0.0915
	minimum = 0.068 (at node 9)
	maximum = 0.108 (at node 10)
Injected flit rate average = 0.096625
	minimum = 0.072 (at node 10)
	maximum = 0.118 (at node 0)
Accepted flit rate average= 0.0915
	minimum = 0.068 (at node 9)
	maximum = 0.108 (at node 10)
Injected packet length average = 1
Accepted packet length average = 1
Total in-flight flits = 43 (0 measured)
latency change    = 1
throughput change = 1
Class 0:
Packet latency average = 28.9309
	minimum = 7
	maximum = 359
Network latency average = 25.8531
	minimum = 7
	maximum = 305
Slowest packet = 64456
Flit latency average = 25.8531
	minimum = 7
	maximum = 305
Slowest flit = 64456
Fragmentation average = 0
	minimum = 0
	maximum = 0
Injected packet rate average = 0.0965
	minimum = 0.069 (at node 12)
	maximum = 0.112 (at node 0)
Accepted packet rate average = 0.094
	minimum = 0.077 (at node 9)
	maximum = 0.104 (at node 1)
Injected flit rate average = 0.0965
	minimum = 0.069 (at node 12)
	maximum = 0.112 (at node 0)
Accepted flit rate average= 0.094
	minimum = 0.077 (at node 9)
	maximum = 0.104 (at node 1)
Injected packet length average = 1
Accepted packet length average = 1
Total in-flight flits = 41 (0 measured)
latency change    = 0.226864
throughput change = 0.0265957
Class 0:
Packet latency average = 35.9226
	minimum = 7
	maximum = 379
Network latency average = 26.285
	minimum = 7
	maximum = 141
Slowest packet = 65293
Flit latency average = 26.285
	minimum = 7
	maximum = 141
Slowest flit = 65337
Fragmentation average = 0
	minimum = 0
	maximum = 0
Injected packet rate average = 0.10175
	minimum = 0.072 (at node 2)
	maximum = 0.15 (at node 8)
Accepted packet rate average = 0.10175
	minimum = 0.082 (at node 6)
	maximum = 0.118 (at node 7)
Injected flit rate average = 0.10175
	minimum = 0.072 (at node 2)
	maximum = 0.15 (at node 8)
Accepted flit rate average= 0.10175
	minimum = 0.082 (at node 6)
	maximum = 0.118 (at node 7)
Injected packet length average = 1
Accepted packet length average = 1
Total in-flight flits = 40 (0 measured)
latency change    = 0.194634
throughput change = 0.0761671
Warmed up ...Time used is 1500 cycles
Class 0:
Packet latency average = 35.1143
	minimum = 7
	maximum = 336
Network latency average = 28.0604
	minimum = 7
	maximum = 265
Slowest packet = 66239
Flit latency average = 29.2472
	minimum = 7
	maximum = 265
Slowest flit = 66265
Fragmentation average = 0
	minimum = 0
	maximum = 0
Injected packet rate average = 0.101125
	minimum = 0.07 (at node 12)
	maximum = 0.132 (at node 6)
Accepted packet rate average = 0.100125
	minimum = 0.076 (at node 13)
	maximum = 0.128 (at node 11)
Injected flit rate average = 0.101125
	minimum = 0.07 (at node 12)
	maximum = 0.132 (at node 6)
Accepted flit rate average= 0.100125
	minimum = 0.076 (at node 13)
	maximum = 0.128 (at node 11)
Injected packet length average = 1
Accepted packet length average = 1
Total in-flight flits = 49 (49 measured)
latency change    = 0.0230186
throughput change = 0.0162297
Class 0:
Packet latency average = 31.6168
	minimum = 7
	maximum = 336
Network latency average = 26.2033
	minimum = 7
	maximum = 265
Slowest packet = 66239
Flit latency average = 26.8363
	minimum = 7
	maximum = 265
Slowest flit = 66265
Fragmentation average = 0
	minimum = 0
	maximum = 0
Injected packet rate average = 0.100187
	minimum = 0.081 (at node 0)
	maximum = 0.111 (at node 6)
Accepted packet rate average = 0.101187
	minimum = 0.081 (at node 9)
	maximum = 0.121 (at node 3)
Injected flit rate average = 0.100187
	minimum = 0.081 (at node 0)
	maximum = 0.111 (at node 6)
Accepted flit rate average= 0.101187
	minimum = 0.081 (at node 9)
	maximum = 0.121 (at node 3)
Injected packet length average = 1
Accepted packet length average = 1
Total in-flight flits = 24 (24 measured)
latency change    = 0.110621
throughput change = 0.0105003
Class 0:
Packet latency average = 29.0947
	minimum = 7
	maximum = 336
Network latency average = 25.4253
	minimum = 7
	maximum = 265
Slowest packet = 66239
Flit latency average = 25.866
	minimum = 7
	maximum = 265
Slowest flit = 66265
Fragmentation average = 0
	minimum = 0
	maximum = 0
Injected packet rate average = 0.0994583
	minimum = 0.086 (at node 0)
	maximum = 0.111333 (at node 7)
Accepted packet rate average = 0.0998333
	minimum = 0.0833333 (at node 13)
	maximum = 0.117333 (at node 5)
Injected flit rate average = 0.0994583
	minimum = 0.086 (at node 0)
	maximum = 0.111333 (at node 7)
Accepted flit rate average= 0.0998333
	minimum = 0.0833333 (at node 13)
	maximum = 0.117333 (at node 5)
Injected packet length average = 1
Accepted packet length average = 1
Total in-flight flits = 31 (31 measured)
latency change    = 0.0866893
throughput change = 0.0135643
Class 0:
Packet latency average = 27.5615
	minimum = 7
	maximum = 336
Network latency average = 24.7873
	minimum = 7
	maximum = 265
Slowest packet = 66239
Flit latency average = 25.1268
	minimum = 7
	maximum = 265
Slowest flit = 66265
Fragmentation average = 0
	minimum = 0
	maximum = 0
Injected packet rate average = 0.0997813
	minimum = 0.0895 (at node 8)
	maximum = 0.1095 (at node 11)
Accepted packet rate average = 0.0995313
	minimum = 0.09 (at node 4)
	maximum = 0.1165 (at node 5)
Injected flit rate average = 0.0997813
	minimum = 0.0895 (at node 8)
	maximum = 0.1095 (at node 11)
Accepted flit rate average= 0.0995313
	minimum = 0.09 (at node 4)
	maximum = 0.1165 (at node 5)
Injected packet length average = 1
Accepted packet length average = 1
Total in-flight flits = 48 (48 measured)
latency change    = 0.0556256
throughput change = 0.00303506
Class 0:
Packet latency average = 28.8927
	minimum = 7
	maximum = 368
Network latency average = 25.8249
	minimum = 7
	maximum = 311
Slowest packet = 66239
Flit latency average = 26.0862
	minimum = 7
	maximum = 311
Slowest flit = 69623
Fragmentation average = 0
	minimum = 0
	maximum = 0
Injected packet rate average = 0.099625
	minimum = 0.0876 (at node 8)
	maximum = 0.1076 (at node 1)
Accepted packet rate average = 0.099525
	minimum = 0.0864 (at node 4)
	maximum = 0.1124 (at node 12)
Injected flit rate average = 0.099625
	minimum = 0.0876 (at node 8)
	maximum = 0.1076 (at node 1)
Accepted flit rate average= 0.099525
	minimum = 0.0864 (at node 4)
	maximum = 0.1124 (at node 12)
Injected packet length average = 1
Accepted packet length average = 1
Total in-flight flits = 46 (46 measured)
latency change    = 0.0460719
throughput change = 6.27983e-05
Class 0:
Packet latency average = 31.613
	minimum = 7
	maximum = 520
Network latency average = 26.3017
	minimum = 7
	maximum = 311
Slowest packet = 66239
Flit latency average = 26.5187
	minimum = 7
	maximum = 311
Slowest flit = 69623
Fragmentation average = 0
	minimum = 0
	maximum = 0
Injected packet rate average = 0.098375
	minimum = 0.0896667 (at node 0)
	maximum = 0.107667 (at node 11)
Accepted packet rate average = 0.098
	minimum = 0.0873333 (at node 4)
	maximum = 0.109667 (at node 12)
Injected flit rate average = 0.098375
	minimum = 0.0896667 (at node 0)
	maximum = 0.107667 (at node 11)
Accepted flit rate average= 0.098
	minimum = 0.0873333 (at node 4)
	maximum = 0.109667 (at node 12)
Injected packet length average = 1
Accepted packet length average = 1
Total in-flight flits = 61 (61 measured)
latency change    = 0.0860509
throughput change = 0.0155612
Class 0:
Packet latency average = 36.134
	minimum = 7
	maximum = 709
Network latency average = 27.2884
	minimum = 7
	maximum = 311
Slowest packet = 66239
Flit latency average = 27.467
	minimum = 7
	maximum = 311
Slowest flit = 69623
Fragmentation average = 0
	minimum = 0
	maximum = 0
Injected packet rate average = 0.0981429
	minimum = 0.088 (at node 12)
	maximum = 0.107143 (at node 6)
Accepted packet rate average = 0.098125
	minimum = 0.0877143 (at node 4)
	maximum = 0.108571 (at node 12)
Injected flit rate average = 0.0981429
	minimum = 0.088 (at node 12)
	maximum = 0.107143 (at node 6)
Accepted flit rate average= 0.098125
	minimum = 0.0877143 (at node 4)
	maximum = 0.108571 (at node 12)
Injected packet length average = 1
Accepted packet length average = 1
Total in-flight flits = 43 (43 measured)
latency change    = 0.125118
throughput change = 0.00127389
Draining all recorded packets ...
Draining remaining packets ...
Time taken is 6003 cycles
Class 0:
Packet latency average = 23.2843
	minimum = 7
	maximum = 95
Network latency average = 23.2678
	minimum = 7
	maximum = 95
Slowest packet = 73389
Flit latency average = 23.2678
	minimum = 7
	maximum = 95
Slowest flit = 73389
Fragmentation average = 0
	minimum = 0
	maximum = 0
Injected packet rate average = 0.10375
	minimum = 0.07 (at node 6)
	maximum = 0.13 (at node 7)
Accepted packet rate average = 0.0985
	minimum = 0.062 (at node 9)
	maximum = 0.124 (at node 12)
Injected flit rate average = 0.10375
	minimum = 0.07 (at node 6)
	maximum = 0.13 (at node 7)
Accepted flit rate average= 0.0985
	minimum = 0.062 (at node 9)
	maximum = 0.124 (at node 12)
Injected packet length average = 1
Accepted packet length average = 1
Total in-flight flits = 42 (0 measured)
latency change    = 1
throughput change = 1
Class 0:
Packet latency average = 23.3726
	minimum = 7
	maximum = 111
Network latency average = 23.3539
	minimum = 7
	maximum = 111
Slowest packet = 74615
Flit latency average = 23.3539
	minimum = 7
	maximum = 111
Slowest flit = 74615
Fragmentation average = 0
	minimum = 0
	maximum = 0
Injected packet rate average = 0.102438
	minimum = 0.081 (at node 6)
	maximum = 0.116 (at node 7)
Accepted packet rate average = 0.100312
	minimum = 0.083 (at node 4)
	maximum = 0.12 (at node 12)
Injected flit rate average = 0.102438
	minimum = 0.081 (at node 6)
	maximum = 0.116 (at node 7)
Accepted flit rate average= 0.100312
	minimum = 0.083 (at node 4)
	maximum = 0.12 (at node 12)
Injected packet length average = 1
Accepted packet length average = 1
Total in-flight flits = 34 (0 measured)
latency change    = 0.00377886
throughput change = 0.0180685
Class 0:
Packet latency average = 25.2719
	minimum = 7
	maximum = 212
Network latency average = 24.7603
	minimum = 7
	maximum = 206
Slowest packet = 75284
Flit latency average = 24.7603
	minimum = 7
	maximum = 206
Slowest flit = 75284
Fragmentation average = 0
	minimum = 0
	maximum = 0
Injected packet rate average = 0.09825
	minimum = 0.084 (at node 2)
	maximum = 0.124 (at node 13)
Accepted packet rate average = 0.097
	minimum = 0.08 (at node 13)
	maximum = 0.118 (at node 2)
Injected flit rate average = 0.09825
	minimum = 0.084 (at node 2)
	maximum = 0.124 (at node 13)
Accepted flit rate average= 0.097
	minimum = 0.08 (at node 13)
	maximum = 0.118 (at node 2)
Injected packet length average = 1
Accepted packet length average = 1
Total in-flight flits = 45 (0 measured)
latency change    = 0.0751554
throughput change = 0.0341495
Warmed up ...Time used is 1500 cycles
Class 0:
Packet latency average = 24.0966
	minimum = 7
	maximum = 105
Network latency average = 23.831
	minimum = 7
	maximum = 105
Slowest packet = 76159
Flit latency average = 24.8053
	minimum = 7
	maximum = 150
Slowest flit = 75378
Fragmentation average = 0
	minimum = 0
	maximum = 0
Injected packet rate average = 0.103625
	minimum = 0.08 (at node 0)
	maximum = 0.126 (at node 2)
Accepted packet rate average = 0.104
	minimum = 0.08 (at node 3)
	maximum = 0.132 (at node 12)
Injected flit rate average = 0.103625
	minimum = 0.08 (at node 0)
	maximum = 0.126 (at node 2)
Accepted flit rate average= 0.104
	minimum = 0.08 (at node 3)
	maximum = 0.132 (at node 12)
Injected packet length average = 1
Accepted packet length average = 1
Total in-flight flits = 41 (41 measured)
latency change    = 0.0487762
throughput change = 0.0673077
Class 0:
Packet latency average = 25.1411
	minimum = 7
	maximum = 120
Network latency average = 24.8246
	minimum = 7
	maximum = 120
Slowest packet = 76576
Flit latency average = 25.2896
	minimum = 7
	maximum = 150
Slowest flit = 75378
Fragmentation average = 0
	minimum = 0
	maximum = 0
Injected packet rate average = 0.1025
	minimum = 0.091 (at node 11)
	maximum = 0.121 (at node 2)
Accepted packet rate average = 0.102938
	minimum = 0.085 (at node 10)
	maximum = 0.12 (at node 12)
Injected flit rate average = 0.1025
	minimum = 0.091 (at node 11)
	maximum = 0.121 (at node 2)
Accepted flit rate average= 0.102938
	minimum = 0.085 (at node 10)
	maximum = 0.12 (at node 12)
Injected packet length average = 1
Accepted packet length average = 1
Total in-flight flits = 37 (37 measured)
latency change    = 0.0415457
throughput change = 0.0103218
Class 0:
Packet latency average = 24.9132
	minimum = 7
	maximum = 216
[...]
Accepted packet rate average = 0.0989167
	minimum = 0.0906667 (at node 9)
	maximum = 0.117333 (at node 3)
Injected flit rate average = 0.098875
	minimum = 0.093 (at node 4)
	maximum = 0.110333 (at node 11)
Accepted flit rate average= 0.0989167
	minimum = 0.0906667 (at node 9)
	maximum = 0.117333 (at node 3)
Injected packet length average = 1
Accepted packet length average = 1
Total in-flight flits = 37 (37 measured)
latency change    = 0.0588802
throughput change = 0.0031171
Class 0:
Packet latency average = 28.334
	minimum = 7
	maximum = 324
Network latency average = 25.0543
	minimum = 7
	maximum = 239
Slowest packet = 355751
Flit latency average = 25.0945
	minimum = 7
	maximum = 239
Slowest flit = 355732
Fragmentation average = 0
	minimum = 0
	maximum = 0
Injected packet rate average = 0.0993929
	minimum = 0.0934286 (at node 6)
	maximum = 0.111714 (at node 11)
Accepted packet rate average = 0.099375
	minimum = 0.092 (at node 9)
	maximum = 0.114286 (at node 3)
Injected flit rate average = 0.0993929
	minimum = 0.0934286 (at node 6)
	maximum = 0.111714 (at node 11)
Accepted flit rate average= 0.099375
	minimum = 0.092 (at node 9)
	maximum = 0.114286 (at node 3)
Injected packet length average = 1
Accepted packet length average = 1
Total in-flight flits = 39 (39 measured)
latency change    = 0.0603667
throughput change = 0.00461216
Draining all recorded packets ...
Draining remaining packets ...
Time taken is 5119 cycles
Class 0:
Packet latency average = 24.1548
	minimum = 7
	maximum = 150
Network latency average = 24.1138
	minimum = 7
	maximum = 150
Slowest packet = 357994
Flit latency average = 24.1138
	minimum = 7
	maximum = 150
Slowest flit = 357994
Fragmentation average = 0
	minimum = 0
	maximum = 0
Injected packet rate average = 0.101125
	minimum = 0.062 (at node 14)
	maximum = 0.138 (at node 15)
Accepted packet rate average = 0.0945
	minimum = 0.076 (at node 0)
	maximum = 0.12 (at node 7)
Injected flit rate average = 0.101125
	minimum = 0.062 (at node 14)
	maximum = 0.138 (at node 15)
Accepted flit rate average= 0.0945
	minimum = 0.076 (at node 0)
	maximum = 0.12 (at node 7)
Injected packet length average = 1
Accepted packet length average = 1
Total in-flight flits = 54 (0 measured)
latency change    = 1
throughput change = 1
Class 0:
Packet latency average = 28.4155
	minimum = 7
	maximum = 269
Network latency average = 26.2043
	minimum = 7
	maximum = 248
Slowest packet = 358135
Flit latency average = 26.2043
	minimum = 7
	maximum = 248
Slowest flit = 358135
Fragmentation average = 0
	minimum = 0
	maximum = 0
Injected packet rate average = 0.101688
	minimum = 0.079 (at node 14)
	maximum = 0.128 (at node 15)
Accepted packet rate average = 0.099125
	minimum = 0.081 (at node 4)
	maximum = 0.116 (at node 7)
Injected flit rate average = 0.101688
	minimum = 0.079 (at node 14)
	maximum = 0.128 (at node 15)
Accepted flit rate average= 0.099125
	minimum = 0.081 (at node 4)
	maximum = 0.116 (at node 7)
Injected packet length average = 1
Accepted packet length average = 1
Total in-flight flits = 43 (0 measured)
latency change    = 0.149944
throughput change = 0.0466583
Class 0:
Packet latency average = 32.5546
	minimum = 7
	maximum = 286
Network latency average = 27.4621
	minimum = 7
	maximum = 286
Slowest packet = 359244
Flit latency average = 27.4621
	minimum = 7
	maximum = 286
Slowest flit = 359244
Fragmentation average = 0
	minimum = 0
	maximum = 0
Injected packet rate average = 0.09775
	minimum = 0.074 (at node 15)
	maximum = 0.118 (at node 10)
Accepted packet rate average = 0.097375
	minimum = 0.06 (at node 8)
	maximum = 0.11 (at node 4)
Injected flit rate average = 0.09775
	minimum = 0.074 (at node 15)
	maximum = 0.118 (at node 10)
Accepted flit rate average= 0.097375
	minimum = 0.06 (at node 8)
	maximum = 0.11 (at node 4)
Injected packet length average = 1
Accepted packet length average = 1
Total in-flight flits = 44 (0 measured)
latency change    = 0.127142
throughput change = 0.0179718
Warmed up ...Time used is 1500 cycles
Class 0:
Packet latency average = 26.709
	minimum = 7
	maximum = 174
Network latency average = 25.3001
	minimum = 7
	maximum = 92
Slowest packet = 359894
Flit latency average = 25.4461
	minimum = 7
	maximum = 92
Slowest flit = 359920
Fragmentation average = 0
	minimum = 0
	maximum = 0
Injected packet rate average = 0.10025
	minimum = 0.074 (at node 2)
	maximum = 0.12 (at node 1)
Accepted packet rate average = 0.100875
	minimum = 0.08 (at node 9)
	maximum = 0.13 (at node 8)
Injected flit rate average = 0.10025
	minimum = 0.074 (at node 2)
	maximum = 0.12 (at node 1)
Accepted flit rate average= 0.100875
	minimum = 0.08 (at node 9)
	maximum = 0.13 (at node 8)
Injected packet length average = 1
Accepted packet length average = 1
Total in-flight flits = 39 (39 measured)
latency change    = 0.218859
throughput change = 0.0346964
Class 0:
Packet latency average = 28.0255
	minimum = 7
	maximum = 269
Network latency average = 25.8861
	minimum = 7
	maximum = 185
Slowest packet = 360859
Flit latency average = 25.943
	minimum = 7
	maximum = 185
Slowest flit = 360859
Fragmentation average = 0
	minimum = 0
	maximum = 0
Injected packet rate average = 0.10125
	minimum = 0.085 (at node 3)
	maximum = 0.113 (at node 6)
Accepted packet rate average = 0.100937
	minimum = 0.086 (at node 4)
	maximum = 0.115 (at node 2)
Injected flit rate average = 0.10125
	minimum = 0.085 (at node 3)
	maximum = 0.113 (at node 6)
Accepted flit rate average= 0.100937
	minimum = 0.086 (at node 4)
	maximum = 0.115 (at node 2)
Injected packet length average = 1
Accepted packet length average = 1
Total in-flight flits = 49 (49 measured)
latency change    = 0.0469722
throughput change = 0.000619195
Class 0:
Packet latency average = 30.7202
	minimum = 7
	maximum = 396
Network latency average = 26.1959
	minimum = 7
	maximum = 229
Slowest packet = 360859
Flit latency average = 26.229
	minimum = 7
	maximum = 229
Slowest flit = 361830
Fragmentation average = 0
	minimum = 0
	maximum = 0
Injected packet rate average = 0.0984583
	minimum = 0.088 (at node 0)
	maximum = 0.114 (at node 1)
Accepted packet rate average = 0.098625
	minimum = 0.082 (at node 5)
	maximum = 0.109333 (at node 2)
Injected flit rate average = 0.0984583
	minimum = 0.088 (at node 0)
	maximum = 0.114 (at node 1)
Accepted flit rate average= 0.098625
	minimum = 0.082 (at node 5)
	maximum = 0.109333 (at node 2)
Injected packet length average = 1
Accepted packet length average = 1
Total in-flight flits = 42 (42 measured)
latency change    = 0.0877185
throughput change = 0.0234474
Class 0:
Packet latency average = 33.9349
	minimum = 7
	maximum = 486
Network latency average = 26.4784
	minimum = 7
	maximum = 230
Slowest packet = 360859
Flit latency average = 26.4994
	minimum = 7
	maximum = 230
Slowest flit = 362084
Fragmentation average = 0
	minimum = 0
	maximum = 0
Injected packet rate average = 0.0985937
	minimum = 0.0915 (at node 2)
	maximum = 0.111 (at node 4)
Accepted packet rate average = 0.098375
	minimum = 0.0845 (at node 5)
	maximum = 0.1115 (at node 11)
Injected flit rate average = 0.0985937
	minimum = 0.0915 (at node 2)
	maximum = 0.111 (at node 4)
Accepted flit rate average= 0.098375
	minimum = 0.0845 (at node 5)
	maximum = 0.1115 (at node 11)
Injected packet length average = 1
Accepted packet length average = 1
Total in-flight flits = 53 (53 measured)
latency change    = 0.0947323
throughput change = 0.0025413
Class 0:
Packet latency average = 36.5388
	minimum = 7
	maximum = 613
Network latency average = 27.0801
	minimum = 7
	maximum = 353
Slowest packet = 360859
Flit latency average = 27.0901
	minimum = 7
	maximum = 353
Slowest flit = 363029
Fragmentation average = 0
	minimum = 0
	maximum = 0
Injected packet rate average = 0.098675
	minimum = 0.086 (at node 12)
	maximum = 0.1088 (at node 1)
Accepted packet rate average = 0.0985
	minimum = 0.0864 (at node 5)
	maximum = 0.1076 (at node 8)
Injected flit rate average = 0.098675
	minimum = 0.086 (at node 12)
	maximum = 0.1088 (at node 1)
Accepted flit rate average= 0.0985
	minimum = 0.0864 (at node 5)
	maximum = 0.1076 (at node 8)
Injected packet length average = 1
Accepted packet length average = 1
Total in-flight flits = 53 (53 measured)
latency change    = 0.0712623
throughput change = 0.00126904
Class 0:
Packet latency average = 40.4157
	minimum = 7
	maximum = 898
Network latency average = 27.1735
	minimum = 7
	maximum = 353
Slowest packet = 360859
Flit latency average = 27.181
	minimum = 7
	maximum = 353
Slowest flit = 363029
Fragmentation average = 0
	minimum = 0
	maximum = 0
Injected packet rate average = 0.0986042
	minimum = 0.0813333 (at node 12)
	maximum = 0.109667 (at node 1)
Accepted packet rate average = 0.0984375
	minimum = 0.0883333 (at node 4)
	maximum = 0.105333 (at node 7)
Injected flit rate average = 0.0986042
	minimum = 0.0813333 (at node 12)
	maximum = 0.109667 (at node 1)
Accepted flit rate average= 0.0984375
	minimum = 0.0883333 (at node 4)
	maximum = 0.105333 (at node 7)
Injected packet length average = 1
Accepted packet length average = 1
Total in-flight flits = 53 (53 measured)
latency change    = 0.0959272
throughput change = 0.000634921
Class 0:
Packet latency average = 43.624
	minimum = 7
	maximum = 1165
Network latency average = 27.6042
	minimum = 7
	maximum = 353
Slowest packet = 360859
Flit latency average = 27.6072
	minimum = 7
	maximum = 353
Slowest flit = 363029
Fragmentation average = 0
	minimum = 0
	maximum = 0
Injected packet rate average = 0.0991071
	minimum = 0.078 (at node 12)
	maximum = 0.108857 (at node 1)
Accepted packet rate average = 0.0992857
	minimum = 0.0894286 (at node 0)
	maximum = 0.107714 (at node 7)
Injected flit rate average = 0.0991071
	minimum = 0.078 (at node 12)
	maximum = 0.108857 (at node 1)
Accepted flit rate average= 0.0992857
	minimum = 0.0894286 (at node 0)
	maximum = 0.107714 (at node 7)
Injected packet length average = 1
Accepted packet length average = 1
Total in-flight flits = 36 (36 measured)
latency change    = 0.0735439
throughput change = 0.00854317
Draining all recorded packets ...
Class 0:
Remaining flits: 366869 366878 366904 366943 366961 366964 366981 366983 366992 366993 [...] (37 flits)
Measured flits: 366869 366878 366904 (3 flits)
Draining remaining packets ...
Time taken is 6076 cycles
Class 0:
Packet latency average = 24.7586
	minimum = 7
	maximum = 112
Network latency average = 24.4422
	minimum = 7
	maximum = 112
Slowest packet = 367143
Flit latency average = 24.4422
	minimum = 7
	maximum = 112
Slowest flit = 367143
Fragmentation average = 0
	minimum = 0
	maximum = 0
Injected packet rate average = 0.1025
	minimum = 0.084 (at node 6)
	maximum = 0.126 (at node 12)
Accepted packet rate average = 0.098375
	minimum = 0.066 (at node 9)
	maximum = 0.134 (at node 0)
Injected flit rate average = 0.1025
	minimum = 0.084 (at node 6)
	maximum = 0.126 (at node 12)
Accepted flit rate average= 0.098375
	minimum = 0.066 (at node 9)
	maximum = 0.134 (at node 0)
Injected packet length average = 1
Accepted packet length average = 1
Total in-flight flits = 33 (0 measured)
latency change    = 1
throughput change = 1
Class 0:
Packet latency average = 23.6249
	minimum = 7
	maximum = 112
Network latency average = 23.4633
	minimum = 7
	maximum = 112
Slowest packet = 367143
Flit latency average = 23.4633
	minimum = 7
	maximum = 112
Slowest flit = 367143
Fragmentation average = 0
	minimum = 0
	maximum = 0
Injected packet rate average = 0.09975
	minimum = 0.077 (at node 2)
	maximum = 0.11 (at node 1)
Accepted packet rate average = 0.0978125
	minimum = 0.074 (at node 9)
	maximum = 0.117 (at node 1)
Injected flit rate average = 0.09975
	minimum = 0.077 (at node 2)
	maximum = 0.11 (at node 1)
Accepted flit rate average= 0.0978125
	minimum = 0.074 (at node 9)
	maximum = 0.117 (at node 1)
Injected packet length average = 1
Accepted packet length average = 1
Total in-flight flits = 31 (0 measured)
latency change    = 0.0479856
throughput change = 0.0057508
Class 0:
Packet latency average = 23.4286
	minimum = 7
	maximum = 93
Network latency average = 23.4223
	minimum = 7
	maximum = 93
Slowest packet = 369024
Flit latency average = 23.4223
	minimum = 7
	maximum = 93
Slowest flit = 369024
Fragmentation average = 0
	minimum = 0
	maximum = 0
Injected packet rate average = 0.098875
	minimum = 0.082 (at node 2)
	maximum = 0.126 (at node 14)
Accepted packet rate average = 0.098875
	minimum = 0.08 (at node 3)
	maximum = 0.136 (at node 9)
Injected flit rate average = 0.098875
	minimum = 0.082 (at node 2)
	maximum = 0.126 (at node 14)
Accepted flit rate average= 0.098875
	minimum = 0.08 (at node 3)
	maximum = 0.136 (at node 9)
Injected packet length average = 1
Accepted packet length average = 1
Total in-flight flits = 31 (0 measured)
latency change    = 0.00838074
throughput change = 0.0107459
Warmed up ...Time used is 1500 cycles
Class 0:
Packet latency average = 22.5613
	minimum = 7
	maximum = 119
Network latency average = 22.5572
	minimum = 7
	maximum = 119
Slowest packet = 369700
Flit latency average = 22.6732
	minimum = 7
	maximum = 119
Slowest flit = 369700
Fragmentation average = 0
	minimum = 0
	maximum = 0
Injected packet rate average = 0.096875
	minimum = 0.074 (at node 7)
	maximum = 0.116 (at node 1)
Accepted packet rate average = 0.095625
	minimum = 0.062 (at node 5)
	maximum = 0.126 (at node 14)
Injected flit rate average = 0.096875
	minimum = 0.074 (at node 7)
	maximum = 0.116 (at node 1)
Accepted flit rate average= 0.095625
	minimum = 0.062 (at node 5)
	maximum = 0.126 (at node 14)
Injected packet length average = 1
Accepted packet length average = 1
Total in-flight flits = 41 (41 measured)
latency change    = 0.0384403
throughput change = 0.0339869
Class 0:
Packet latency average = 25.783
	minimum = 7
	maximum = 282
Network latency average = 24.8464
	minimum = 7
	maximum = 211
Slowest packet = 370247
Flit latency average = 24.8578
	minimum = 7
	maximum = 211
Slowest flit = 370247
Fragmentation average = 0
	minimum = 0
	maximum = 0
Injected packet rate average = 0.09775
	minimum = 0.081 (at node 11)
	maximum = 0.111 (at node 15)
Accepted packet rate average = 0.0975625
	minimum = 0.073 (at node 5)
	maximum = 0.112 (at node 14)
Injected flit rate average = 0.09775
	minimum = 0.081 (at node 11)
	maximum = 0.111 (at node 15)
Accepted flit rate average= 0.0975625
	minimum = 0.073 (at node 5)
	maximum = 0.112 (at node 14)
Injected packet length average = 1
Accepted packet length average = 1
Total in-flight flits = 36 (36 measured)
latency change    = 0.124954
throughput change = 0.0198591
Class 0:
Packet latency average = 27.1699
	minimum = 7
	maximum = 351
Network latency average = 24.9922
	minimum = 7
	maximum = 212
Slowest packet = 370247
Flit latency average = 24.9979
	minimum = 7
	maximum = 212
Slowest flit = 370786
Fragmentation average = 0
	minimum = 0
	maximum = 0
Injected packet rate average = 0.0982917
	minimum = 0.086 (at node 11)
	maximum = 0.106667 (at node 1)
Accepted packet rate average = 0.0972083
	minimum = 0.082 (at node 5)
	maximum = 0.112667 (at node 7)
Injected flit rate average = 0.0982917
	minimum = 0.086 (at node 11)
	maximum = 0.106667 (at node 1)
Accepted flit rate average= 0.0972083
	minimum = 0.082 (at node 5)
	maximum = 0.112667 (at node 7)
Injected packet length average = 1
Accepted packet length average = 1
Total in-flight flits = 59 (59 measured)
latency change    = 0.0510436
throughput change = 0.00364338
Class 0:
Packet latency average = 31.2936
	minimum = 7
	maximum = 373
Network latency average = 26.2002
	minimum = 7
	maximum = 373
Slowest packet = 371710
Flit latency average = 26.1924
	minimum = 7
	maximum = 373
Slowest flit = 371710
Fragmentation average = 0
	minimum = 0
	maximum = 0
Injected packet rate average = 0.0969688
	minimum = 0.086 (at node 11)
	maximum = 0.1055 (at node 4)
Accepted packet rate average = 0.0966562
	minimum = 0.081 (at node 5)
	maximum = 0.1115 (at node 7)
Injected flit rate average = 0.0969688
	minimum = 0.086 (at node 11)
	maximum = 0.1055 (at node 4)
Accepted flit rate average= 0.0966562
	minimum = 0.081 (at node 5)
	maximum = 0.1115 (at node 7)
Injected packet length average = 1
Accepted packet length average = 1
Total in-flight flits = 42 (42 measured)
latency change    = 0.131776
throughput change = 0.00571182
Class 0:
Packet latency average = 32.284
	minimum = 7
	maximum = 373
Network latency average = 26.6468
	minimum = 7
	maximum = 373
Slowest packet = 371710
Flit latency average = 26.637
	minimum = 7
	maximum = 373
Slowest flit = 371710
Fragmentation average = 0
	minimum = 0
	maximum = 0
Injected packet rate average = 0.09815
	minimum = 0.086 (at node 11)
	maximum = 0.1108 (at node 4)
Accepted packet rate average = 0.0976
	minimum = 0.0828 (at node 5)
	maximum = 0.114 (at node 7)
Injected flit rate average = 0.09815
	minimum = 0.086 (at node 11)
	maximum = 0.1108 (at node 4)
Accepted flit rate average= 0.0976
	minimum = 0.0828 (at node 5)
	maximum = 0.114 (at node 7)
Injected packet length average = 1
Accepted packet length average = 1
Total in-flight flits = 54 (54 measured)
latency change    = 0.0306783
throughput change = 0.00966957
Class 0:
Packet latency average = 32.9199
	minimum = 7
	maximum = 373
Network latency average = 26.8342
	minimum = 7
	maximum = 373
Slowest packet = 371710
Flit latency average = 26.8249
	minimum = 7
	maximum = 373
Slowest flit = 371710
Fragmentation average = 0
	minimum = 0
	maximum = 0
Injected packet rate average = 0.0982083
	minimum = 0.0853333 (at node 11)
	maximum = 0.11 (at node 4)
Accepted packet rate average = 0.0979167
	minimum = 0.086 (at node 5)
	maximum = 0.111667 (at node 7)
Injected flit rate average = 0.0982083
	minimum = 0.0853333 (at node 11)
	maximum = 0.11 (at node 4)
Accepted flit rate average= 0.0979167
	minimum = 0.086 (at node 5)
	maximum = 0.111667 (at node 7)
Injected packet length average = 1
Accepted packet length average = 1
Total in-flight flits = 45 (45 measured)
latency change    = 0.019316
throughput change = 0.00323404
Class 0:
Packet latency average = 31.8966
	minimum = 7
	maximum = 373
Network latency average = 26.6004
	minimum = 7
	maximum = 373
Slowest packet = 371710
Flit latency average = 26.5937
	minimum = 7
	maximum = 373
Slowest flit = 371710
Fragmentation average = 0
	minimum = 0
	maximum = 0
Injected packet rate average = 0.0986786
	minimum = 0.0868571 (at node 11)
	maximum = 0.110286 (at node 4)
Accepted packet rate average = 0.0985
	minimum = 0.0888571 (at node 5)
	maximum = 0.11 (at node 7)
Injected flit rate average = 0.0986786
	minimum = 0.0868571 (at node 11)
	maximum = 0.110286 (at node 4)
Accepted flit rate average= 0.0985
	minimum = 0.0888571 (at node 5)
	maximum = 0.11 (at node 7)
Injected packet length average = 1
Accepted packet length average = 1
Total in-flight flits = 41 (41 measured)
latency change    = 0.0320808
throughput change = 0.00592217
Draining all recorded packets ...
Draining remaining packets ...
Time taken is 5247 cycles
====== Overall Traffic Statistics ======
====== Traffic class 0 ======
Packet latency average = 33.4293 (50 samples)
	minimum = 7 (50 samples)
	maximum = 430.1 (50 samples)
Network latency average = 25.7383 (50 samples)
	minimum = 7 (50 samples)
	maximum = 270.16 (50 samples)
Flit latency average = 25.7413 (50 samples)
	minimum = 7 (50 samples)
	maximum = 274.34 (50 samples)
Fragmentation average = 0 (50 samples)
	minimum = 0 (50 samples)
	maximum = 0 (50 samples)
Injected packet rate average = 0.099784 (50 samples)
	minimum = 0.0896391 (50 samples)
	maximum = 0.110345 (50 samples)
Accepted packet rate average = 0.0997444 (50 samples)
	minimum = 0.0897199 (50 samples)
	maximum = 0.110514 (50 samples)
Injected flit rate average = 0.099784 (50 samples)
	minimum = 0.0896391 (50 samples)
	maximum = 0.110345 (50 samples)
Accepted flit rate average = 0.0997444 (50 samples)
	minimum = 0.0897199 (50 samples)
	maximum = 0.110514 (50 samples)
Injected packet size average = 1 (50 samples)
Accepted packet size average = 1 (50 samples)
Hops average = 3.52062 (50 samples)
Total run time 4.25885
