BEGIN Configuration File: /tmp/tmp31ehku9v.cfg
topology = mesh;
k = 4;
n = 2;
routing_function = gnn_port_score_route_4x4;
num_vcs = 4;
vc_buf_size = 4;
wait_for_tail_credit = 1;
vc_allocator = islip;
sw_allocator = islip;
alloc_iters = 1;
credit_delay = 2;
routing_delay = 1;
vc_alloc_delay = 1;
sw_alloc_delay = 1;
input_speedup = 2;
output_speedup = 1;
internal_speedup = 1.0;
traffic = hotspot;
packet_size = 1;
sim_type = latency;
injection_rate = 0.01;
warmup_periods = 3;
sample_period = 500;
sim_count = 50;
seed = 0;
link_failures = 1;
fail_seed = 101;

END Configuration File: /tmp/tmp31ehku9v.cfg
failure at node 14, channel 0 (1/1)
Class 0:
Packet latency average = 22.7595
	minimum = 7
	maximum = 45
Network latency average = 22.7595
	minimum = 7
	maximum = 45
Slowest packet = 60
Flit latency average = 22.7595
	minimum = 7
	maximum = 45
Slowest flit = 60
Fragmentation average = 0
	minimum = 0
	maximum = 0
Injected packet rate average = 0.010375
	minimum = 0.004 (at node 5)
	maximum = 0.016 (at node 9)
Accepted packet rate average = 0.009875
	minimum = 0 (at node 0)
	maximum = 0.158 (at node 12)
Injected flit rate average = 0.010375
	minimum = 0.004 (at node 5)
	maximum = 0.016 (at node 9)
Accepted flit rate average= 0.009875
	minimum = 0 (at node 0)
	maximum = 0.158 (at node 12)
Injected packet length average = 1
Accepted packet length average = 1
Total in-flight flits = 4 (0 measured)
latency change    = 1
throughput change = 1
Class 0:
Packet latency average = 22.2857
	minimum = 7
	maximum = 47
Network latency average = 22.2857
	minimum = 7
	maximum = 47
Slowest packet = 100
Flit latency average = 22.2857
	minimum = 7
	maximum = 47
Slowest flit = 100
Fragmentation average = 0
	minimum = 0
	maximum = 0
Injected packet rate average = 0.00975
	minimum = 0.004 (at node 11)
	maximum = 0.014 (at node 13)
Accepted packet rate average = 0.009625
	minimum = 0 (at node 0)
	maximum = 0.154 (at node 12)
Injected flit rate average = 0.00975
	minimum = 0.004 (at node 11)
	maximum = 0.014 (at node 13)
Accepted flit rate average= 0.009625
	minimum = 0 (at node 0)
	maximum = 0.154 (at node 12)
Injected packet length average = 1
Accepted packet length average = 1
Total in-flight flits = 2 (0 measured)
latency change    = 0.0212593
throughput change = 0.025974
Class 0:
Packet latency average = 23.3913
	minimum = 7
	maximum = 44
Network latency average = 23.3913
	minimum = 7
	maximum = 44
Slowest packet = 213
Flit latency average = 23.3913
	minimum = 7
	maximum = 44
Slowest flit = 213
Fragmentation average = 0
	minimum = 0
	maximum = 0
Injected packet rate average = 0.00925
	minimum = 0.002 (at node 11)
	maximum = 0.016 (at node 10)
Accepted packet rate average = 0.008625
	minimum = 0 (at node 0)
	maximum = 0.138 (at node 12)
Injected flit rate average = 0.00925
	minimum = 0.002 (at node 11)
	maximum = 0.016 (at node 10)
Accepted flit rate average= 0.008625
	minimum = 0 (at node 0)
	maximum = 0.138 (at node 12)
Injected packet length average = 1
Accepted packet length average = 1
Total in-flight flits = 7 (0 measured)
latency change    = 0.047265
throughput change = 0.115942
Warmed up ...Time used is 1500 cycles
Class 0:
Packet latency average = 21.76
	minimum = 7
	maximum = 37
Network latency average = 21.76
	minimum = 7
	maximum = 37
Slowest packet = 232
Flit latency average = 22.4756
	minimum = 7
	maximum = 39
Slowest flit = 229
Fragmentation average = 0
	minimum = 0
	maximum = 0
Injected packet rate average = 0.00975
	minimum = 0.004 (at node 3)
	maximum = 0.018 (at node 8)
Accepted packet rate average = 0.01025
	minimum = 0 (at node 0)
	maximum = 0.164 (at node 12)
Injected flit rate average = 0.00975
	minimum = 0.004 (at node 3)
	maximum = 0.018 (at node 8)
Accepted flit rate average= 0.01025
	minimum = 0 (at node 0)
	maximum = 0.164 (at node 12)
Injected packet length average = 1
Accepted packet length average = 1
Total in-flight flits = 3 (3 measured)
latency change    = 0.074968
throughput change = 0.158537
Class 0:
Packet latency average = 22.1569
	minimum = 7
	maximum = 37
Network latency average = 22.1569
	minimum = 7
	maximum = 37
Slowest packet = 232
Flit latency average = 22.5063
	minimum = 7
	maximum = 39
Slowest flit = 229
Fragmentation average = 0
	minimum = 0
	maximum = 0
Injected packet rate average = 0.0096875
	minimum = 0.005 (at node 7)
	maximum = 0.016 (at node 13)
Accepted packet rate average = 0.01
	minimum = 0 (at node 0)
	maximum = 0.16 (at node 12)
Injected flit rate average = 0.0096875
	minimum = 0.005 (at node 7)
	maximum = 0.016 (at node 13)
Accepted flit rate average= 0.01
	minimum = 0 (at node 0)
	maximum = 0.16 (at node 12)
Injected packet length average = 1
Accepted packet length average = 1
Total in-flight flits = 2 (2 measured)
latency change    = 0.0179115
throughput change = 0.025
Class 0:
Packet latency average = 22.3178
	minimum = 7
	maximum = 43
Network latency average = 22.3178
	minimum = 7
	maximum = 43
Slowest packet = 390
Flit latency average = 22.5432
	minimum = 7
	maximum = 43
Slowest flit = 390
Fragmentation average = 0
	minimum = 0
	maximum = 0
Injected packet rate average = 0.00991667
	minimum = 0.00733333 (at node 7)
	maximum = 0.0133333 (at node 13)
Accepted packet rate average = 0.010125
	minimum = 0 (at node 0)
	maximum = 0.162 (at node 12)
Injected flit rate average = 0.00991667
	minimum = 0.00733333 (at node 7)
	maximum = 0.0133333 (at node 13)
Accepted flit rate average= 0.010125
	minimum = 0 (at node 0)
	maximum = 0.162 (at node 12)
Injected packet length average = 1
Accepted packet length average = 1
Total in-flight flits = 2 (2 measured)
latency change    = 0.00721101
throughput change = 0.0123457
Class 0:
Packet latency average = 22.6518
	minimum = 7
	maximum = 43
Network latency average = 22.6518
	minimum = 7
	maximum = 43
Slowest packet = 390
Flit latency average = 22.8156
	minimum = 7
	maximum = 43
Slowest flit = 390
Fragmentation average = 0
	minimum = 0
	maximum = 0
Injected packet rate average = 0.00990625
	minimum = 0.0075 (at node 1)
	maximum = 0.013 (at node 8)
Accepted packet rate average = 0.01
	minimum = 0 (at node 0)
	maximum = 0.16 (at node 12)
Injected flit rate average = 0.00990625
	minimum = 0.0075 (at node 1)
	maximum = 0.013 (at node 8)
Accepted flit rate average= 0.01
	minimum = 0 (at node 0)
	maximum = 0.16 (at node 12)
Injected packet length average = 1
Accepted packet length average = 1
Total in-flight flits = 4 (4 measured)
latency change    = 0.0147433
throughput change = 0.0125
Draining all recorded packets ...
Draining remaining packets ...
Time taken is 3555 cycles
Class 0:
Packet latency average = 23.0952
	minimum = 7
	maximum = 37
Network latency average = 23.0952
	minimum = 7
	maximum = 37
Slowest packet = 564
Flit latency average = 23.0952
	minimum = 7
	maximum = 37
Slowest flit = 564
Fragmentation average = 0
	minimum = 0
	maximum = 0
Injected packet rate average = 0.008125
	minimum = 0.004 (at node 5)
	maximum = 0.016 (at node 11)
Accepted packet rate average = 0.007875
	minimum = 0 (at node 0)
	maximum = 0.126 (at node 12)
Injected flit rate average = 0.008125
	minimum = 0.004 (at node 5)
	maximum = 0.016 (at node 11)
Accepted flit rate average= 0.007875
	minimum = 0 (at node 0)
	maximum = 0.126 (at node 12)
Injected packet length average = 1
Accepted packet length average = 1
Total in-flight flits = 2 (0 measured)
latency change    = 1
throughput change = 1
Class 0:
Packet latency average = 23.1079
	minimum = 7
	maximum = 42
Network latency average = 23.1079
	minimum = 7
	maximum = 42
Slowest packet = 647
Flit latency average = 23.1079
	minimum = 7
	maximum = 42
Slowest flit = 647
Fragmentation average = 0
	minimum = 0
	maximum = 0
Injected packet rate average = 0.009
	minimum = 0.006 (at node 8)
	maximum = 0.016 (at node 10)
Accepted packet rate average = 0.0086875
	minimum = 0 (at node 0)
	maximum = 0.139 (at node 12)
Injected flit rate average = 0.009
	minimum = 0.006 (at node 8)
	maximum = 0.016 (at node 10)
Accepted flit rate average= 0.0086875
	minimum = 0 (at node 0)
	maximum = 0.139 (at node 12)
Injected packet length average = 1
Accepted packet length average = 1
Total in-flight flits = 5 (0 measured)
latency change    = 0.000548538
throughput change = 0.0935252
Class 0:
Packet latency average = 22.9859
	minimum = 7
	maximum = 37
Network latency average = 22.9859
	minimum = 7
	maximum = 37
Slowest packet = 706
Flit latency average = 22.9859
	minimum = 7
	maximum = 37
Slowest flit = 706
Fragmentation average = 0
	minimum = 0
	maximum = 0
Injected packet rate average = 0.009
	minimum = 0.004 (at node 9)
	maximum = 0.014 (at node 6)
Accepted packet rate average = 0.008875
	minimum = 0 (at node 0)
	maximum = 0.142 (at node 12)
Injected flit rate average = 0.009
	minimum = 0.004 (at node 9)
	maximum = 0.014 (at node 6)
Accepted flit rate average= 0.008875
	minimum = 0 (at node 0)
	maximum = 0.142 (at node 12)
Injected packet length average = 1
Accepted packet length average = 1
Total in-flight flits = 6 (0 measured)
latency change    = 0.00530752
throughput change = 0.0211268
Warmed up ...Time used is 1500 cycles
Class 0:
Packet latency average = 22.9091
	minimum = 7
	maximum = 41
Network latency average = 22.9091
	minimum = 7
	maximum = 41
Slowest packet = 768
Flit latency average = 23.0482
	minimum = 7
	maximum = 41
Slowest flit = 768
Fragmentation average = 0
	minimum = 0
	maximum = 0
Injected packet rate average = 0.01025
	minimum = 0.002 (at node 2)
	maximum = 0.02 (at node 15)
Accepted packet rate average = 0.010375
	minimum = 0 (at node 0)
	maximum = 0.166 (at node 12)
Injected flit rate average = 0.01025
	minimum = 0.002 (at node 2)
	maximum = 0.02 (at node 15)
Accepted flit rate average= 0.010375
	minimum = 0 (at node 0)
	maximum = 0.166 (at node 12)
Injected packet length average = 1
Accepted packet length average = 1
Total in-flight flits = 5 (5 measured)
latency change    = 0.00335345
throughput change = 0.144578
Class 0:
Packet latency average = 21.9739
	minimum = 7
	maximum = 41
Network latency average = 21.9739
	minimum = 7
	maximum = 41
Slowest packet = 768
Flit latency average = 22.0818
	minimum = 7
	maximum = 41
Slowest flit = 768
Fragmentation average = 0
	minimum = 0
	maximum = 0
Injected packet rate average = 0.009875
	minimum = 0.005 (at node 6)
	maximum = 0.015 (at node 3)
Accepted packet rate average = 0.0099375
	minimum = 0 (at node 0)
	maximum = 0.159 (at node 12)
Injected flit rate average = 0.009875
	minimum = 0.005 (at node 6)
	maximum = 0.015 (at node 3)
Accepted flit rate average= 0.0099375
	minimum = 0 (at node 0)
	maximum = 0.159 (at node 12)
Injected packet length average = 1
Accepted packet length average = 1
Total in-flight flits = 5 (5 measured)
latency change    = 0.0425612
throughput change = 0.0440252
Class 0:
Packet latency average = 22.6809
	minimum = 7
	maximum = 46
Network latency average = 22.6809
	minimum = 7
	maximum = 46
Slowest packet = 982
Flit latency average = 22.7344
	minimum = 7
	maximum = 46
Slowest flit = 982
Fragmentation average = 0
	minimum = 0
	maximum = 0
Injected packet rate average = 0.01025
	minimum = 0.00533333 (at node 10)
	maximum = 0.018 (at node 3)
Accepted packet rate average = 0.0100417
	minimum = 0 (at node 0)
	maximum = 0.160667 (at node 12)
Injected flit rate average = 0.01025
	minimum = 0.00533333 (at node 10)
	maximum = 0.018 (at node 3)
Accepted flit rate average= 0.0100417
	minimum = 0 (at node 0)
	maximum = 0.160667 (at node 12)
Injected packet length average = 1
Accepted packet length average = 1
Total in-flight flits = 11 (11 measured)
latency change    = 0.0311714
throughput change = 0.0103734
Class 0:
Packet latency average = 22.9013
	minimum = 7
	maximum = 77
Network latency average = 22.9013
	minimum = 7
	maximum = 77
Slowest packet = 1002
Flit latency average = 22.9375
	minimum = 7
	maximum = 77
Slowest flit = 1002
Fragmentation average = 0
	minimum = 0
	maximum = 0
Injected packet rate average = 0.00996875
	minimum = 0.0055 (at node 2)
	maximum = 0.0165 (at node 13)
Accepted packet rate average = 0.01
	minimum = 0 (at node 0)
	maximum = 0.16 (at node 12)
Injected flit rate average = 0.00996875
	minimum = 0.0055 (at node 2)
	maximum = 0.0165 (at node 13)
Accepted flit rate average= 0.01
	minimum = 0 (at node 0)
	maximum = 0.16 (at node 12)
Injected packet length average = 1
Accepted packet length average = 1
Total in-flight flits = 5 (5 measured)
latency change    = 0.00962492
throughput change = 0.00416667
Draining all recorded packets ...
Draining remaining packets ...
Time taken is 3545 cycles
Class 0:
Packet latency average = 24.1892
	minimum = 7
	maximum = 37
Network latency average = 24.1892
	minimum = 7
	maximum = 37
Slowest packet = 1094
Flit latency average = 24.1892
	minimum = 7
	maximum = 37
Slowest flit = 1094
Fragmentation average = 0
	minimum = 0
	maximum = 0
Injected packet rate average = 0.010125
	minimum = 0.004 (at node 8)
	maximum = 0.016 (at node 1)
Accepted packet rate average = 0.00925
	minimum = 0 (at node 0)
	maximum = 0.148 (at node 12)
Injected flit rate average = 0.010125
	minimum = 0.004 (at node 8)
	maximum = 0.016 (at node 1)
Accepted flit rate average= 0.00925
	minimum = 0 (at node 0)
	maximum = 0.148 (at node 12)
Injected packet length average = 1
Accepted packet length average = 1
Total in-flight flits = 7 (0 measured)
latency change    = 1
throughput change = 1
Class 0:
Packet latency average = 23.8982
	minimum = 7
	maximum = 41
Network latency average = 23.8982
	minimum = 7
	maximum = 41
Slowest packet = 1243
Flit latency average = 23.8982
	minimum = 7
	maximum = 41
Slowest flit = 1243
Fragmentation average = 0
	minimum = 0
	maximum = 0
Injected packet rate average = 0.01075
	minimum = 0.006 (at node 8)
	maximum = 0.017 (at node 1)
Accepted packet rate average = 0.0104375
	minimum = 0 (at node 0)
	maximum = 0.167 (at node 12)
Injected flit rate average = 0.01075
	minimum = 0.006 (at node 8)
	maximum = 0.017 (at node 1)
Accepted flit rate average= 0.0104375
	minimum = 0 (at node 0)
	maximum = 0.167 (at node 12)
Injected packet length average = 1
Accepted packet length average = 1
Total in-flight flits = 5 (0 measured)
latency change    = 0.012176
throughput change = 0.113772
Class 0:
Packet latency average = 23.41
	minimum = 7
	maximum = 43
Network latency average = 23.41
	minimum = 7
	maximum = 43
Slowest packet = 1322
Flit latency average = 23.41
	minimum = 7
	maximum = 43
Slowest flit = 1322
Fragmentation average = 0
	minimum = 0
	maximum = 0
Injected packet rate average = 0.012625
	minimum = 0.006 (at node 8)
	maximum = 0.018 (at node 0)
Accepted packet rate average = 0.0125
	minimum = 0 (at node 0)
	maximum = 0.2 (at node 12)
Injected flit rate average = 0.012625
	minimum = 0.006 (at node 8)
	maximum = 0.018 (at node 0)
Accepted flit rate average= 0.0125
	minimum = 0 (at node 0)
	maximum = 0.2 (at node 12)
Injected packet length average = 1
Accepted packet length average = 1
Total in-flight flits = 6 (0 measured)
latency change    = 0.0208545
throughput change = 0.165
Warmed up ...Time used is 1500 cycles
Class 0:
Packet latency average = 22.5714
	minimum = 7
	maximum = 39
Network latency average = 22.5714
	minimum = 7
	maximum = 39
Slowest packet = 1405
Flit latency average = 22.4667
	minimum = 7
	maximum = 39
Slowest flit = 1405
Fragmentation average = 0
	minimum = 0
	maximum = 0
Injected packet rate average = 0.01075
	minimum = 0.004 (at node 5)
	maximum = 0.016 (at node 1)
Accepted packet rate average = 0.01125
	minimum = 0 (at node 0)
	maximum = 0.18 (at node 12)
Injected flit rate average = 0.01075
	minimum = 0.004 (at node 5)
	maximum = 0.016 (at node 1)
Accepted flit rate average= 0.01125
	minimum = 0 (at node 0)
	maximum = 0.18 (at node 12)
Injected packet length average = 1
Accepted packet length average = 1
Total in-flight flits = 2 (2 measured)
latency change    = 0.0371519
throughput change = 0.111111
Class 0:
Packet latency average = 23.118
	minimum = 7
	maximum = 48
Network latency average = 23.118
	minimum = 7
	maximum = 48
Slowest packet = 1458
Flit latency average = 23.0419
	minimum = 7
	maximum = 48
Slowest flit = 1458
Fragmentation average = 0
	minimum = 0
	maximum = 0
Injected packet rate average = 0.010125
	minimum = 0.003 (at node 5)
	maximum = 0.016 (at node 7)
Accepted packet rate average = 0.0104375
	minimum = 0 (at node 0)
	maximum = 0.167 (at node 12)
Injected flit rate average = 0.010125
	minimum = 0.003 (at node 5)
	maximum = 0.016 (at node 7)
Accepted flit rate average= 0.0104375
	minimum = 0 (at node 0)
	maximum = 0.167 (at node 12)
Injected packet length average = 1
Accepted packet length average = 1
Total in-flight flits = 1 (1 measured)
latency change    = 0.0236432
throughput change = 0.0778443
Class 0:
Packet latency average = 22.8811
	minimum = 7
	maximum = 48
Network latency average = 22.8811
	minimum = 7
	maximum = 48
Slowest packet = 1458
Flit latency average = 22.8326
	minimum = 7
	maximum = 48
Slowest flit = 1458
Fragmentation average = 0
	minimum = 0
	maximum = 0
Injected packet rate average = 0.00954167
	minimum = 0.004 (at node 5)
	maximum = 0.0133333 (at node 1)
Accepted packet rate average = 0.00970833
	minimum = 0 (at node 0)
	maximum = 0.155333 (at node 12)
Injected flit rate average = 0.00954167
	minimum = 0.004 (at node 5)
	maximum = 0.0133333 (at node 1)
Accepted flit rate average= 0.00970833
	minimum = 0 (at node 0)
	maximum = 0.155333 (at node 12)
Injected packet length average = 1
Accepted packet length average = 1
Total in-flight flits = 2 (2 measured)
latency change    = 0.010356
throughput change = 0.0751073
Class 0:
Packet latency average = 22.7508
	minimum = 7
	maximum = 48
Network latency average = 22.7508
	minimum = 7
	maximum = 48
Slowest packet = 1458
Flit latency average = 22.717
	minimum = 7
	maximum = 48
Slowest flit = 1458
Fragmentation average = 0
	minimum = 0
	maximum = 0
Injected packet rate average = 0.0096875
	minimum = 0.006 (at node 2)
	maximum = 0.013 (at node 1)
Accepted packet rate average = 0.00971875
	minimum = 0 (at node 0)
	maximum = 0.1555 (at node 12)
Injected flit rate average = 0.0096875
	minimum = 0.006 (at node 2)
	maximum = 0.013 (at node 1)
Accepted flit rate average= 0.00971875
	minimum = 0 (at node 0)
	maximum = 0.1555 (at node 12)
Injected packet length average = 1
Accepted packet length average = 1
Total in-flight flits = 5 (5 measured)
latency change    = 0.00572452
throughput change = 0.00107181
Class 0:
Packet latency average = 22.6891
	minimum = 7
	maximum = 48
Network latency average = 22.6891
	minimum = 7
	maximum = 48
Slowest packet = 1458
Flit latency average = 22.6633
	minimum = 7
	maximum = 48
Slowest flit = 1458
Fragmentation average = 0
	minimum = 0
	maximum = 0
Injected packet rate average = 0.009725
	minimum = 0.0064 (at node 2)
	maximum = 0.0136 (at node 1)
Accepted packet rate average = 0.0098
	minimum = 0 (at node 0)
	maximum = 0.1568 (at node 12)
Injected flit rate average = 0.009725
	minimum = 0.0064 (at node 2)
	maximum = 0.0136 (at node 1)
Accepted flit rate average= 0.0098
	minimum = 0 (at node 0)
	maximum = 0.1568 (at node 12)
Injected packet length average = 1
Accepted packet length average = 1
Total in-flight flits = 3 (3 measured)
latency change    = 0.00271939
throughput change = 0.00829082
Class 0:
Packet latency average = 22.8697
	minimum = 7
	maximum = 48
Network latency average = 22.8697
	minimum = 7
	maximum = 48
Slowest packet = 1458
Flit latency average = 22.8465
	minimum = 7
	maximum = 48
Slowest flit = 1458
Fragmentation average = 0
	minimum = 0
	maximum = 0
Injected packet rate average = 0.00991667
	minimum = 0.00733333 (at node 5)
	maximum = 0.013 (at node 1)
Accepted packet rate average = 0.0100417
	minimum = 0 (at node 0)
	maximum = 0.160667 (at node 12)
Injected flit rate average = 0.00991667
	minimum = 0.00733333 (at node 5)
	maximum = 0.013 (at node 1)
Accepted flit rate average= 0.0100417
	minimum = 0 (at node 0)
	maximum = 0.160667 (at node 12)
Injected packet length average = 1
Accepted packet length average = 1
Total in-flight flits = 0 (0 measured)
latency change    = 0.00789815
throughput change = 0.0240664
Draining all recorded packets ...
Draining remaining packets ...
Time taken is 4501 cycles
Class 0:
Packet latency average = 21.8148
	minimum = 7
	maximum = 38
Network latency average = 21.8148
	minimum = 7
	maximum = 38
Slowest packet = 1903
Flit latency average = 21.8148
	minimum = 7
	maximum = 38
Slowest flit = 1903
Fragmentation average = 0
	minimum = 0
	maximum = 0
Injected packet rate average = 0.0105
	minimum = 0.006 (at node 3)
	maximum = 0.018 (at node 7)
Accepted packet rate average = 0.010125
	minimum = 0 (at node 0)
	maximum = 0.162 (at node 12)
Injected flit rate average = 0.0105
	minimum = 0.006 (at node 3)
	maximum = 0.018 (at node 7)
Accepted flit rate average= 0.010125
	minimum = 0 (at node 0)
	maximum = 0.162 (at node 12)
Injected packet length average = 1
Accepted packet length average = 1
Total in-flight flits = 3 (0 measured)
latency change    = 1
throughput change = 1
Class 0:
Packet latency average = 23.0828
	minimum = 7
	maximum = 48
Network latency average = 23.0828
	minimum = 7
	maximum = 48
Slowest packet = 1966
Flit latency average = 23.0828
	minimum = 7
	maximum = 48
Slowest flit = 1966
Fragmentation average = 0
	minimum = 0
	maximum = 0
Injected packet rate average = 0.0108125
	minimum = 0.006 (at node 9)
	maximum = 0.018 (at node 7)
Accepted packet rate average = 0.0105625
	minimum = 0 (at node 0)
	maximum = 0.169 (at node 12)
Injected flit rate average = 0.0108125
	minimum = 0.006 (at node 9)
	maximum = 0.018 (at node 7)
Accepted flit rate average= 0.0105625
	minimum = 0 (at node 0)
	maximum = 0.169 (at node 12)
Injected packet length average = 1
Accepted packet length average = 1
Total in-flight flits = 4 (0 measured)
latency change    = 0.0549337
throughput change = 0.0414201
Class 0:
Packet latency average = 22.725
	minimum = 7
	maximum = 42
Network latency average = 22.725
	minimum = 7
	maximum = 42
Slowest packet = 2014
Flit latency average = 22.725
	minimum = 7
	maximum = 42
Slowest flit = 2014
Fragmentation average = 0
	minimum = 0
	maximum = 0
Injected packet rate average = 0.00975
	minimum = 0.008 (at node 0)
	maximum = 0.014 (at node 6)
Accepted packet rate average = 0.01
	minimum = 0 (at node 0)
	maximum = 0.16 (at node 12)
Injected flit rate average = 0.00975
	minimum = 0.008 (at node 0)
	maximum = 0.014 (at node 6)
Accepted flit rate average= 0.01
	minimum = 0 (at node 0)
	maximum = 0.16 (at node 12)
Injected packet length average = 1
Accepted packet length average = 1
Total in-flight flits = 2 (0 measured)
latency change    = 0.0157465
throughput change = 0.05625
Warmed up ...Time used is 1500 cycles
Class 0:
Packet latency average = 22.5059
	minimum = 7
	maximum = 39
Network latency average = 22.5059
	minimum = 7
	maximum = 39
Slowest packet = 2114
Flit latency average = 22.6092
	minimum = 7
	maximum = 39
Slowest flit = 2114
Fragmentation average = 0
	minimum = 0
	maximum = 0
Injected packet rate average = 0.011125
	minimum = 0.002 (at node 3)
	maximum = 0.018 (at node 6)
Accepted packet rate average = 0.010875
	minimum = 0 (at node 0)
	maximum = 0.174 (at node 12)
Injected flit rate average = 0.011125
	minimum = 0.002 (at node 3)
	maximum = 0.018 (at node 6)
Accepted flit rate average= 0.010875
	minimum = 0 (at node 0)
	maximum = 0.174 (at node 12)
Injected packet length average = 1
Accepted packet length average = 1
Total in-flight flits = 4 (4 measured)
latency change    = 0.00973602
throughput change = 0.0804598
Class 0:
Packet latency average = 22.8101
	minimum = 7
	maximum = 39
Network latency average = 22.8101
	minimum = 7
	maximum = 39
Slowest packet = 2114
Flit latency average = 22.8625
	minimum = 7
	maximum = 39
Slowest flit = 2114
Fragmentation average = 0
	minimum = 0
	maximum = 0
Injected packet rate average = 0.01
	minimum = 0.005 (at node 14)
	maximum = 0.014 (at node 6)
Accepted packet rate average = 0.01
	minimum = 0 (at node 0)
	maximum = 0.16 (at node 12)
Injected flit rate average = 0.01
	minimum = 0.005 (at node 14)
	maximum = 0.014 (at node 6)
Accepted flit rate average= 0.01
	minimum = 0 (at node 0)
	maximum = 0.16 (at node 12)
Injected packet length average = 1
Accepted packet length average = 1
Total in-flight flits = 2 (2 measured)
latency change    = 0.0133381
throughput change = 0.0875
Class 0:
Packet latency average = 22.9831
	minimum = 7
	maximum = 45
Network latency average = 22.9831
	minimum = 7
	maximum = 45
Slowest packet = 2313
Flit latency average = 23.0168
	minimum = 7
	maximum = 45
Slowest flit = 2313
Fragmentation average = 0
	minimum = 0
	maximum = 0
Injected packet rate average = 0.00991667
	minimum = 0.00533333 (at node 14)
	maximum = 0.0133333 (at node 9)
Accepted packet rate average = 0.00991667
	minimum = 0 (at node 0)
	maximum = 0.158667 (at node 12)
Injected flit rate average = 0.00991667
	minimum = 0.00533333 (at node 14)
	maximum = 0.0133333 (at node 9)
Accepted flit rate average= 0.00991667
	minimum = 0 (at node 0)
	maximum = 0.158667 (at node 12)
Injected packet length average = 1
Accepted packet length average = 1
Total in-flight flits = 2 (2 measured)
latency change    = 0.00752399
throughput change = 0.00840336
Class 0:
Packet latency average = 22.8791
	minimum = 7
	maximum = 45
Network latency average = 22.8791
	minimum = 7
	maximum = 45
Slowest packet = 2313
Flit latency average = 22.9058
	minimum = 7
	maximum = 45
Slowest flit = 2313
Fragmentation average = 0
	minimum = 0
	maximum = 0
Injected packet rate average = 0.00965625
	minimum = 0.006 (at node 14)
	maximum = 0.0125 (at node 9)
Accepted packet rate average = 0.009625
	minimum = 0 (at node 0)
	maximum = 0.154 (at node 12)
Injected flit rate average = 0.00965625
	minimum = 0.006 (at node 14)
	maximum = 0.0125 (at node 9)
Accepted flit rate average= 0.009625
	minimum = 0 (at node 0)
	maximum = 0.154 (at node 12)
Injected packet length average = 1
Accepted packet length average = 1
Total in-flight flits = 3 (3 measured)
latency change    = 0.00454415
throughput change = 0.030303
Class 0:
Packet latency average = 22.6282
	minimum = 7
	maximum = 45
Network latency average = 22.6282
	minimum = 7
	maximum = 45
Slowest packet = 2313
Flit latency average = 22.6505
	minimum = 7
	maximum = 45
Slowest flit = 2313
Fragmentation average = 0
	minimum = 0
	maximum = 0
Injected packet rate average = 0.00985
	minimum = 0.006 (at node 3)
	maximum = 0.0124 (at node 7)
Accepted packet rate average = 0.0098
	minimum = 0 (at node 0)
	maximum = 0.1568 (at node 12)
Injected flit rate average = 0.00985
	minimum = 0.006 (at node 3)
	maximum = 0.0124 (at node 7)
Accepted flit rate average= 0.0098
	minimum = 0 (at node 0)
	maximum = 0.1568 (at node 12)
Injected packet length average = 1
Accepted packet length average = 1
Total in-flight flits = 4 (4 measured)
latency change    = 0.011087
throughput change = 0.0178571
Draining all recorded packets ...
Draining remaining packets ...
Time taken is 4030 cycles
Class 0:
Packet latency average = 22.0494
	minimum = 7
	maximum = 40
Network latency average = 22.0494
	minimum = 7
	maximum = 40
Slowest packet = 2543
Flit latency average = 22.0494
	minimum = 7
	maximum = 40
Slowest flit = 2543
Fragmentation average = 0
	minimum = 0
	maximum = 0
Injected packet rate average = 0.010375
	minimum = 0.002 (at node 0)
	maximum = 0.016 (at node 8)
Accepted packet rate average = 0.010125
	minimum = 0 (at node 0)
	maximum = 0.162 (at node 12)
Injected flit rate average = 0.010375
	minimum = 0.002 (at node 0)
	maximum = 0.016 (at node 8)
Accepted flit rate average= 0.010125
	minimum = 0 (at node 0)
	maximum = 0.162 (at node 12)
Injected packet length average = 1
Accepted packet length average = 1
Total in-flight flits = 2 (0 measured)
latency change    = 1
throughput change = 1
Class 0:
Packet latency average = 22.2593
	minimum = 7
	maximum = 55
Network latency average = 22.2593
	minimum = 7
	maximum = 55
Slowest packet = 2583
Flit latency average = 22.2593
	minimum = 7
	maximum = 55
Slowest flit = 2583
Fragmentation average = 0
	minimum = 0
	maximum = 0
Injected packet rate average = 0.01025
	minimum = 0.008 (at node 0)
	maximum = 0.013 (at node 4)
Accepted packet rate average = 0.010125
	minimum = 0 (at node 0)
	maximum = 0.162 (at node 12)
Injected flit rate average = 0.01025
	minimum = 0.008 (at node 0)
	maximum = 0.013 (at node 4)
Accepted flit rate average= 0.010125
	minimum = 0 (at node 0)
	maximum = 0.162 (at node 12)
Injected packet length average = 1
Accepted packet length average = 1
Total in-flight flits = 2 (0 measured)
latency change    = 0.00942873
throughput change = 0
Class 0:
Packet latency average = 22.4375
	minimum = 7
	maximum = 41
Network latency average = 22.4375
	minimum = 7
	maximum = 41
Slowest packet = 2720
Flit latency average = 22.4375
	minimum = 7
	maximum = 41
Slowest flit = 2720
Fragmentation average = 0
	minimum = 0
	maximum = 0
Injected packet rate average = 0.0105
	minimum = 0.004 (at node 4)
	maximum = 0.022 (at node 11)
Accepted packet rate average = 0.01
	minimum = 0 (at node 0)
	maximum = 0.16 (at node 12)
Injected flit rate average = 0.0105
	minimum = 0.004 (at node 4)
	maximum = 0.022 (at node 11)
Accepted flit rate average= 0.01
	minimum = 0 (at node 0)
	maximum = 0.16 (at node 12)
Injected packet length average = 1
Accepted packet length average = 1
Total in-flight flits = 6 (0 measured)
latency change    = 0.00794388
throughput change = 0.0125
Warmed up ...Time used is 1500 cycles
Class 0:
Packet latency average = 22.322
	minimum = 7
	maximum = 37
Network latency average = 22.322
	minimum = 7
	maximum = 37
Slowest packet = 2753
Flit latency average = 22.7538
	minimum = 7
	maximum = 37
Slowest flit = 2722
Fragmentation average = 0
	minimum = 0
	maximum = 0
Injected packet rate average = 0.0075
	minimum = 0.002 (at node 8)
	maximum = 0.014 (at node 11)
Accepted packet rate average = 0.008125
	minimum = 0 (at node 0)
	maximum = 0.13 (at node 12)
Injected flit rate average = 0.0075
	minimum = 0.002 (at node 8)
	maximum = 0.014 (at node 11)
Accepted flit rate average= 0.008125
	minimum = 0 (at node 0)
	maximum = 0.13 (at node 12)
Injected packet length average = 1
Accepted packet length average = 1
Total in-flight flits = 1 (1 measured)
latency change    = 0.00517274
throughput change = 0.230769
Class 0:
Packet latency average = 21.2446
	minimum = 7
	maximum = 37
Network latency average = 21.2446
	minimum = 7
	maximum = 37
Slowest packet = 2753
Flit latency average = 21.4828
	minimum = 7
	maximum = 37
Slowest flit = 2722
Fragmentation average = 0
	minimum = 0
	maximum = 0
Injected packet rate average = 0.00875
	minimum = 0.004 (at node 2)
	maximum = 0.014 (at node 11)
Accepted packet rate average = 0.0090625
	minimum = 0 (at node 0)
	maximum = 0.145 (at node 12)
Injected flit rate average = 0.00875
	minimum = 0.004 (at node 2)
	maximum = 0.014 (at node 11)
Accepted flit rate average= 0.0090625
	minimum = 0 (at node 0)
	maximum = 0.145 (at node 12)
Injected packet length average = 1
Accepted packet length average = 1
Total in-flight flits = 1 (1 measured)
latency change    = 0.0507154
throughput change = 0.103448
Class 0:
Packet latency average = 21.464
	minimum = 7
	maximum = 40
Network latency average = 21.464
	minimum = 7
	maximum = 40
Slowest packet = 2930
Flit latency average = 21.6096
	minimum = 7
	maximum = 40
Slowest flit = 2930
Fragmentation average = 0
	minimum = 0
	maximum = 0
Injected packet rate average = 0.00945833
	minimum = 0.004 (at node 9)
	maximum = 0.014 (at node 11)
Accepted packet rate average = 0.0095
	minimum = 0 (at node 0)
	maximum = 0.152 (at node 12)
Injected flit rate average = 0.00945833
	minimum = 0.004 (at node 9)
	maximum = 0.014 (at node 11)
Accepted flit rate average= 0.0095
	minimum = 0 (at node 0)
	maximum = 0.152 (at node 12)
Injected packet length average = 1
Accepted packet length average = 1
Total in-flight flits = 5 (5 measured)
latency change    = 0.0102199
throughput change = 0.0460526
Class 0:
Packet latency average = 21.6254
	minimum = 7
	maximum = 40
Network latency average = 21.6254
	minimum = 7
	maximum = 40
Slowest packet = 2930
Flit latency average = 21.734
	minimum = 7
	maximum = 40
Slowest flit = 2930
Fragmentation average = 0
	minimum = 0
	maximum = 0
Injected packet rate average = 0.009125
	minimum = 0.003 (at node 9)
	maximum = 0.0145 (at node 11)
Accepted packet rate average = 0.00928125
	minimum = 0 (at node 0)
	maximum = 0.1485 (at node 12)
Injected flit rate average = 0.009125
	minimum = 0.003 (at node 9)
	maximum = 0.0145 (at node 11)
Accepted flit rate average= 0.00928125
	minimum = 0 (at node 0)
	maximum = 0.1485 (at node 12)
Injected packet length average = 1
Accepted packet length average = 1
Total in-flight flits = 1 (1 measured)
latency change    = 0.00746647
throughput change = 0.023569
Class 0:
Packet latency average = 22.0767
	minimum = 7
	maximum = 40
Network latency average = 22.0767
	minimum = 7
	maximum = 40
Slowest packet = 2930
Flit latency average = 22.1563
	minimum = 7
	maximum = 40
Slowest flit = 2930
Fragmentation average = 0
	minimum = 0
	maximum = 0
Injected packet rate average = 0.0092
	minimum = 0.0044 (at node 9)
	maximum = 0.0136 (at node 11)
Accepted packet rate average = 0.009275
	minimum = 0 (at node 0)
	maximum = 0.1484 (at node 12)
Injected flit rate average = 0.0092
	minimum = 0.0044 (at node 9)
	maximum = 0.0136 (at node 11)
Accepted flit rate average= 0.009275
	minimum = 0 (at node 0)
	maximum = 0.1484 (at node 12)
Injected packet length average = 1
Accepted packet length average = 1
Total in-flight flits = 3 (3 measured)
latency change    = 0.0204416
throughput change = 0.000673854
Draining all recorded packets ...
Draining remaining packets ...
Time taken is 4048 cycles
Class 0:
Packet latency average = 24.2812
	minimum = 7
	maximum = 48
Network latency average = 24.2812
	minimum = 7
	maximum = 48
Slowest packet = 3130
Flit latency average = 24.2812
	minimum = 7
	maximum = 48
Slowest flit = 3130
Fragmentation average = 0
	minimum = 0
	maximum = 0
Injected packet rate average = 0.0085
	minimum = 0.002 (at node 15)
	maximum = 0.02 (at node 3)
Accepted packet rate average = 0.008
	minimum = 0 (at node 0)
	maximum = 0.128 (at node 12)
Injected flit rate average = 0.0085
	minimum = 0.002 (at node 15)
	maximum = 0.02 (at node 3)
Accepted flit rate average= 0.008
	minimum = 0 (at node 0)
	maximum = 0.128 (at node 12)
Injected packet length average = 1
Accepted packet length average = 1
Total in-flight flits = 4 (0 measured)
latency change    = 1
throughput change = 1
Class 0:
Packet latency average = 22.9262
	minimum = 7
	maximum = 48
Network latency average = 22.9262
	minimum = 7
	maximum = 48
Slowest packet = 3130
Flit latency average = 22.9262
	minimum = 7
	maximum = 48
Slowest flit = 3130
Fragmentation average = 0
	minimum = 0
	maximum = 0
Injected packet rate average = 0.009375
	minimum = 0.006 (at node 2)
	maximum = 0.016 (at node 3)
Accepted packet rate average = 0.0093125
	minimum = 0 (at node 0)
	maximum = 0.149 (at node 12)
Injected flit rate average = 0.009375
	minimum = 0.006 (at node 2)
	maximum = 0.016 (at node 3)
Accepted flit rate average= 0.0093125
	minimum = 0 (at node 0)
	maximum = 0.149 (at node 12)
Injected packet length average = 1
Accepted packet length average = 1
Total in-flight flits = 1 (0 measured)
latency change    = 0.059106
throughput change = 0.14094
Class 0:
Packet latency average = 22.5974
	minimum = 7
	maximum = 43
Network latency average = 22.5974
	minimum = 7
	maximum = 43
Slowest packet = 3308
Flit latency average = 22.5974
	minimum = 7
	maximum = 43
Slowest flit = 3308
Fragmentation average = 0
	minimum = 0
	maximum = 0
Injected packet rate average = 0.009875
	minimum = 0.002 (at node 5)
	maximum = 0.016 (at node 7)
Accepted packet rate average = 0.009625
	minimum = 0 (at node 0)
	maximum = 0.154 (at node 12)
Injected flit rate average = 0.009875
	minimum = 0.002 (at node 5)
	maximum = 0.016 (at node 7)
Accepted flit rate average= 0.009625
	minimum = 0 (at node 0)
	maximum = 0.154 (at node 12)
Injected packet length average = 1
Accepted packet length average = 1
Total in-flight flits = 3 (0 measured)
latency change    = 0.0145491
throughput change = 0.0324675
Warmed up ...Time used is 1500 cycles
Class 0:
Packet latency average = 21.1928
	minimum = 7
	maximum = 40
Network latency average = 21.1928
	minimum = 7
	maximum = 40
Slowest packet = 3370
Flit latency average = 21.314
	minimum = 7
	maximum = 40
Slowest flit = 3370
Fragmentation average = 0
	minimum = 0
	maximum = 0
Injected packet rate average = 0.010625
	minimum = 0.004 (at node 2)
	maximum = 0.028 (at node 12)
Accepted packet rate average = 0.01075
	minimum = 0 (at node 0)
	maximum = 0.172 (at node 12)
Injected flit rate average = 0.010625
	minimum = 0.004 (at node 2)
	maximum = 0.028 (at node 12)
Accepted flit rate average= 0.01075
	minimum = 0 (at node 0)
	maximum = 0.172 (at node 12)
Injected packet length average = 1
Accepted packet length average = 1
Total in-flight flits = 2 (2 measured)
latency change    = 0.0662788
throughput change = 0.104651
Class 0:
Packet latency average = 22.5486
	minimum = 7
	maximum = 45
Network latency average = 22.5486
	minimum = 7
	maximum = 45
Slowest packet = 3456
Flit latency average = 22.5843
	minimum = 7
	maximum = 45
Slowest flit = 3456
Fragmentation average = 0
	minimum = 0
	maximum = 0
Injected packet rate average = 0.0110625
	minimum = 0.007 (at node 1)
	maximum = 0.016 (at node 12)
Accepted packet rate average = 0.011125
	minimum = 0 (at node 0)
	maximum = 0.178 (at node 12)
Injected flit rate average = 0.0110625
	minimum = 0.007 (at node 1)
	maximum = 0.016 (at node 12)
Accepted flit rate average= 0.011125
	minimum = 0 (at node 0)
	maximum = 0.178 (at node 12)
Injected packet length average = 1
Accepted packet length average = 1
Total in-flight flits = 2 (2 measured)
latency change    = 0.060128
throughput change = 0.0337079
Class 0:
Packet latency average = 22.668
	minimum = 7
	maximum = 45
Network latency average = 22.668
	minimum = 7
	maximum = 45
Slowest packet = 3456
Flit latency average = 22.6914
	minimum = 7
	maximum = 45
Slowest flit = 3456
Fragmentation average = 0
	minimum = 0
	maximum = 0
Injected packet rate average = 0.010625
	minimum = 0.00733333 (at node 2)
	maximum = 0.0153333 (at node 14)
Accepted packet rate average = 0.0106667
	minimum = 0 (at node 0)
	maximum = 0.170667 (at node 12)
Injected flit rate average = 0.010625
	minimum = 0.00733333 (at node 2)
	maximum = 0.0153333 (at node 14)
Accepted flit rate average= 0.0106667
	minimum = 0 (at node 0)
	maximum = 0.170667 (at node 12)
Injected packet length average = 1
Accepted packet length average = 1
Total in-flight flits = 2 (2 measured)
latency change    = 0.0052679
throughput change = 0.0429687
Class 0:
Packet latency average = 22.7389
	minimum = 7
	maximum = 45
Network latency average = 22.7389
	minimum = 7
	maximum = 45
Slowest packet = 3456
Flit latency average = 22.7571
	minimum = 7
	maximum = 45
Slowest flit = 3456
Fragmentation average = 0
	minimum = 0
	maximum = 0
Injected packet rate average = 0.009875
	minimum = 0.006 (at node 2)
	maximum = 0.0125 (at node 0)
Accepted packet rate average = 0.00990625
	minimum = 0 (at node 0)
	maximum = 0.1585 (at node 12)
Injected flit rate average = 0.009875
	minimum = 0.006 (at node 2)
	maximum = 0.0125 (at node 0)
Accepted flit rate average= 0.00990625
	minimum = 0 (at node 0)
	maximum = 0.1585 (at node 12)
Injected packet length average = 1
Accepted packet length average = 1
Total in-flight flits = 2 (2 measured)
latency change    = 0.00311666
throughput change = 0.0767613
Class 0:
Packet latency average = 22.7775
	minimum = 7
	maximum = 50
Network latency average = 22.7775
	minimum = 7
	maximum = 50
Slowest packet = 3659
Flit latency average = 22.7922
	minimum = 7
	maximum = 50
Slowest flit = 3659
Fragmentation average = 0
	minimum = 0
	maximum = 0
Injected packet rate average = 0.0097
	minimum = 0.0056 (at node 2)
	maximum = 0.0132 (at node 11)
Accepted packet rate average = 0.009625
	minimum = 0 (at node 0)
	maximum = 0.154 (at node 12)
Injected flit rate average = 0.0097
	minimum = 0.0056 (at node 2)
	maximum = 0.0132 (at node 11)
Accepted flit rate average= 0.009625
	minimum = 0 (at node 0)
	maximum = 0.154 (at node 12)
Injected packet length average = 1
Accepted packet length average = 1
Total in-flight flits = 6 (6 measured)
latency change    = 0.00169612
throughput change = 0.0292208
Class 0:
Packet latency average = 22.7227
	minimum = 7
	maximum = 50
Network latency average = 22.7227
	minimum = 7
	maximum = 50
Slowest packet = 3659
Flit latency average = 22.7354
	minimum = 7
	maximum = 50
Slowest flit = 3659
Fragmentation average = 0
	minimum = 0
	maximum = 0
Injected packet rate average = 0.00960417
	minimum = 0.00566667 (at node 2)
	maximum = 0.0136667 (at node 10)
Accepted packet rate average = 0.00960417
	minimum = 0 (at node 0)
	maximum = 0.153667 (at node 12)
Injected flit rate average = 0.00960417
	minimum = 0.00566667 (at node 2)
	maximum = 0.0136667 (at node 10)
Accepted flit rate average= 0.00960417
	minimum = 0 (at node 0)
	maximum = 0.153667 (at node 12)
Injected packet length average = 1
Accepted packet length average = 1
Total in-flight flits = 3 (3 measured)
latency change    = 0.00241078
throughput change = 0.0021692
Class 0:
Packet latency average = 22.9869
	minimum = 7
	maximum = 50
Network latency average = 22.9869
	minimum = 7
	maximum = 50
Slowest packet = 3659
Flit latency average = 22.9963
	minimum = 7
	maximum = 50
Slowest flit = 3659
Fragmentation average = 0
	minimum = 0
	maximum = 0
Injected packet rate average = 0.00964286
	minimum = 0.00628571 (at node 2)
	maximum = 0.0134286 (at node 11)
Accepted packet rate average = 0.009625
	minimum = 0 (at node 0)
	maximum = 0.154 (at node 12)
Injected flit rate average = 0.00964286
	minimum = 0.00628571 (at node 2)
	maximum = 0.0134286 (at node 11)
Accepted flit rate average= 0.009625
	minimum = 0 (at node 0)
	maximum = 0.154 (at node 12)
Injected packet length average = 1
Accepted packet length average = 1
Total in-flight flits = 4 (4 measured)
latency change    = 0.0114949
throughput change = 0.0021645
Draining all recorded packets ...
Draining remaining packets ...
Time taken is 5026 cycles
Class 0:
Packet latency average = 21.1857
	minimum = 7
	maximum = 37
Network latency average = 21.1857
	minimum = 7
	maximum = 37
Slowest packet = 3882
Flit latency average = 21.1857
	minimum = 7
	maximum = 37
Slowest flit = 3882
Fragmentation average = 0
	minimum = 0
	maximum = 0
Injected packet rate average = 0.00925
	minimum = 0 (at node 10)
	maximum = 0.018 (at node 14)
Accepted packet rate average = 0.00875
	minimum = 0 (at node 0)
	maximum = 0.14 (at node 12)
Injected flit rate average = 0.00925
	minimum = 0 (at node 10)
	maximum = 0.018 (at node 14)
Accepted flit rate average= 0.00875
	minimum = 0 (at node 0)
	maximum = 0.14 (at node 12)
Injected packet length average = 1
Accepted packet length average = 1
Total in-flight flits = 4 (0 measured)
latency change    = 1
throughput change = 1
Class 0:
Packet latency average = 22.9264
	minimum = 7
	maximum = 41
Network latency average = 22.9264
	minimum = 7
	maximum = 41
Slowest packet = 4003
Flit latency average = 22.9264
	minimum = 7
	maximum = 41
Slowest flit = 4003
Fragmentation average = 0
	minimum = 0
	maximum = 0
Injected packet rate average = 0.0105625
	minimum = 0.004 (at node 12)
	maximum = 0.017 (at node 11)
Accepted packet rate average = 0.0101875
	minimum = 0 (at node 0)
	maximum = 0.163 (at node 12)
Injected flit rate average = 0.0105625
	minimum = 0.004 (at node 12)
	maximum = 0.017 (at node 11)
Accepted flit rate average= 0.0101875
	minimum = 0 (at node 0)
	maximum = 0.163 (at node 12)
Injected packet length average = 1
Accepted packet length average = 1
Total in-flight flits = 6 (0 measured)
latency change    = 0.0759242
throughput change = 0.141104
Class 0:
Packet latency average = 23.2609
	minimum = 7
	maximum = 60
Network latency average = 23.2609
	minimum = 7
	maximum = 60
Slowest packet = 4039
Flit latency average = 23.2609
	minimum = 7
	maximum = 60
Slowest flit = 4039
Fragmentation average = 0
	minimum = 0
	maximum = 0
Injected packet rate average = 0.011
	minimum = 0.006 (at node 4)
	maximum = 0.024 (at node 8)
Accepted packet rate average = 0.0115
	minimum = 0 (at node 0)
	maximum = 0.184 (at node 12)
Injected flit rate average = 0.011
	minimum = 0.006 (at node 4)
	maximum = 0.024 (at node 8)
Accepted flit rate average= 0.0115
	minimum = 0 (at node 0)
	maximum = 0.184 (at node 12)
Injected packet length average = 1
Accepted packet length average = 1
Total in-flight flits = 2 (0 measured)
latency change    = 0.0143799
throughput change = 0.11413
Warmed up ...Time used is 1500 cycles
Class 0:
Packet latency average = 21.8889
	minimum = 7
	maximum = 37
Network latency average = 21.8889
	minimum = 7
	maximum = 37
Slowest packet = 4156
Flit latency average = 22.0462
	minimum = 7
	maximum = 37
Slowest flit = 4156
Fragmentation average = 0
	minimum = 0
	maximum = 0
Injected packet rate average = 0.008125
	minimum = 0.004 (at node 6)
	maximum = 0.012 (at node 3)
Accepted packet rate average = 0.008125
	minimum = 0 (at node 0)
	maximum = 0.13 (at node 12)
Injected flit rate average = 0.008125
	minimum = 0.004 (at node 6)
	maximum = 0.012 (at node 3)
Accepted flit rate average= 0.008125
	minimum = 0 (at node 0)
	maximum = 0.13 (at node 12)
Injected packet length average = 1
Accepted packet length average = 1
Total in-flight flits = 2 (2 measured)
latency change    = 0.0626793
throughput change = 0.415385
Class 0:
Packet latency average = 22.469
	minimum = 7
	maximum = 47
Network latency average = 22.469
	minimum = 7
	maximum = 47
Slowest packet = 4201
Flit latency average = 22.5306
	minimum = 7
	maximum = 47
Slowest flit = 4201
Fragmentation average = 0
	minimum = 0
	maximum = 0
Injected packet rate average = 0.009375
	minimum = 0.005 (at node 7)
	maximum = 0.013 (at node 2)
Accepted packet rate average = 0.0091875
	minimum = 0 (at node 0)
	maximum = 0.147 (at node 12)
Injected flit rate average = 0.009375
	minimum = 0.005 (at node 7)
	maximum = 0.013 (at node 2)
Accepted flit rate average= 0.0091875
	minimum = 0 (at node 0)
	maximum = 0.147 (at node 12)
Injected packet length average = 1
Accepted packet length average = 1
Total in-flight flits = 5 (5 measured)
latency change    = 0.0258168
throughput change = 0.115646
Class 0:
Packet latency average = 22.4009
	minimum = 7
	maximum = 50
Network latency average = 22.4009
	minimum = 7
	maximum = 50
Slowest packet = 4301
Flit latency average = 22.441
	minimum = 7
	maximum = 50
Slowest flit = 4301
Fragmentation average = 0
	minimum = 0
	maximum = 0
Injected packet rate average = 0.00970833
	minimum = 0.006 (at node 7)
	maximum = 0.0146667 (at node 8)
Accepted packet rate average = 0.00954167
	minimum = 0 (at node 0)
	maximum = 0.152667 (at node 12)
Injected flit rate average = 0.00970833
	minimum = 0.006 (at node 7)
	maximum = 0.0146667 (at node 8)
Accepted flit rate average= 0.00954167
	minimum = 0 (at node 0)
	maximum = 0.152667 (at node 12)
Injected packet length average = 1
Accepted packet length average = 1
Total in-flight flits = 6 (6 measured)
latency change    = 0.00303937
throughput change = 0.0371179
Class 0:
Packet latency average = 22.1634
	minimum = 7
	maximum = 50
Network latency average = 22.1634
	minimum = 7
	maximum = 50
Slowest packet = 4301
Flit latency average = 22.1948
	minimum = 7
	maximum = 50
Slowest flit = 4301
Fragmentation average = 0
	minimum = 0
	maximum = 0
Injected packet rate average = 0.0096875
	minimum = 0.006 (at node 7)
	maximum = 0.013 (at node 8)
Accepted packet rate average = 0.009625
	minimum = 0 (at node 0)
	maximum = 0.154 (at node 12)
Injected flit rate average = 0.0096875
	minimum = 0.006 (at node 7)
	maximum = 0.013 (at node 8)
Accepted flit rate average= 0.009625
	minimum = 0 (at node 0)
	maximum = 0.154 (at node 12)
Injected packet length average = 1
Accepted packet length average = 1
Total in-flight flits = 4 (4 measured)
latency change    = 0.0107151
throughput change = 0.00865801
Class 0:
Packet latency average = 22.0879
	minimum = 7
	maximum = 50
Network latency average = 22.0879
	minimum = 7
	maximum = 50
Slowest packet = 4301
Flit latency average = 22.1125
	minimum = 7
	maximum = 50
Slowest flit = 4301
Fragmentation average = 0
	minimum = 0
	maximum = 0
Injected packet rate average = 0.009975
	minimum = 0.0064 (at node 7)
	maximum = 0.0152 (at node 8)
Accepted packet rate average = 0.01
	minimum = 0 (at node 0)
	maximum = 0.16 (at node 12)
Injected flit rate average = 0.009975
	minimum = 0.0064 (at node 7)
	maximum = 0.0152 (at node 8)
Accepted flit rate average= 0.01
	minimum = 0 (at node 0)
	maximum = 0.16 (at node 12)
Injected packet length average = 1
Accepted packet length average = 1
Total in-flight flits = 1 (1 measured)
latency change    = 0.0034163
throughput change = 0.0375
Draining all recorded packets ...
Draining remaining packets ...
Time taken is 4010 cycles
Class 0:
Packet latency average = 21.9324
	minimum = 7
	maximum = 37
Network latency average = 21.9324
	minimum = 7
	maximum = 37
Slowest packet = 4543
Flit latency average = 21.9324
	minimum = 7
	maximum = 37
Slowest flit = 4543
Fragmentation average = 0
	minimum = 0
	maximum = 0
Injected packet rate average = 0.00975
	minimum = 0.004 (at node 2)
	maximum = 0.02 (at node 5)
Accepted packet rate average = 0.00925
	minimum = 0 (at node 0)
	maximum = 0.148 (at node 12)
Injected flit rate average = 0.00975
	minimum = 0.004 (at node 2)
	maximum = 0.02 (at node 5)
Accepted flit rate average= 0.00925
	minimum = 0 (at node 0)
	maximum = 0.148 (at node 12)
Injected packet length average = 1
Accepted packet length average = 1
Total in-flight flits = 4 (0 measured)
latency change    = 1
throughput change = 1
Class 0:
Packet latency average = 22.521
	minimum = 7
	maximum = 45
Network latency average = 22.521
	minimum = 7
	maximum = 45
Slowest packet = 4616
Flit latency average = 22.521
	minimum = 7
	maximum = 45
Slowest flit = 4616
Fragmentation average = 0
	minimum = 0
	maximum = 0
Injected packet rate average = 0.010875
	minimum = 0.006 (at node 14)
	maximum = 0.02 (at node 5)
Accepted packet rate average = 0.0104375
	minimum = 0 (at node 0)
	maximum = 0.167 (at node 12)
Injected flit rate average = 0.010875
	minimum = 0.006 (at node 14)
	maximum = 0.02 (at node 5)
Accepted flit rate average= 0.0104375
	minimum = 0 (at node 0)
	maximum = 0.167 (at node 12)
Injected packet length average = 1
Accepted packet length average = 1
Total in-flight flits = 7 (0 measured)
latency change    = 0.0261324
throughput change = 0.113772
Class 0:
Packet latency average = 22.5507
	minimum = 7
	maximum = 39
Network latency average = 22.5507
	minimum = 7
	maximum = 39
Slowest packet = 4724
Flit latency average = 22.5507
	minimum = 7
	maximum = 39
Slowest flit = 4724
Fragmentation average = 0
	minimum = 0
	maximum = 0
Injected packet rate average = 0.008125
	minimum = 0.002 (at node 0)
	maximum = 0.014 (at node 12)
Accepted packet rate average = 0.008625
	minimum = 0 (at node 0)
	maximum = 0.138 (at node 12)
Injected flit rate average = 0.008125
	minimum = 0.002 (at node 0)
	maximum = 0.014 (at node 12)
Accepted flit rate average= 0.008625
	minimum = 0 (at node 0)
	maximum = 0.138 (at node 12)
Injected packet length average = 1
Accepted packet length average = 1
Total in-flight flits = 3 (0 measured)
latency change    = 0.00131998
throughput change = 0.210145
Warmed up ...Time used is 1500 cycles
Class 0:
Packet latency average = 22.8714
	minimum = 7
	maximum = 41
Network latency average = 22.8714
	minimum = 7
	maximum = 41
Slowest packet = 4812
Flit latency average = 23.0411
	minimum = 7
	maximum = 41
Slowest flit = 4812
Fragmentation average = 0
	minimum = 0
	maximum = 0
Injected packet rate average = 0.009
	minimum = 0.002 (at node 3)
	maximum = 0.018 (at node 15)
Accepted packet rate average = 0.009125
	minimum = 0 (at node 0)
	maximum = 0.146 (at node 12)
Injected flit rate average = 0.009
	minimum = 0.002 (at node 3)
	maximum = 0.018 (at node 15)
Accepted flit rate average= 0.009125
	minimum = 0 (at node 0)
	maximum = 0.146 (at node 12)
Injected packet length average = 1
Accepted packet length average = 1
Total in-flight flits = 2 (2 measured)
latency change    = 0.014022
throughput change = 0.0547945
Class 0:
Packet latency average = 23.0755
	minimum = 7
	maximum = 42
Network latency average = 23.0755
	minimum = 7
	maximum = 42
Slowest packet = 4880
Flit latency average = 23.1481
	minimum = 7
	maximum = 42
Slowest flit = 4880
Fragmentation average = 0
	minimum = 0
	maximum = 0
Injected packet rate average = 0.010125
	minimum = 0.004 (at node 9)
	maximum = 0.019 (at node 0)
Accepted packet rate average = 0.010125
	minimum = 0 (at node 0)
	maximum = 0.162 (at node 12)
Injected flit rate average = 0.010125
	minimum = 0.004 (at node 9)
	maximum = 0.019 (at node 0)
Accepted flit rate average= 0.010125
	minimum = 0 (at node 0)
	maximum = 0.162 (at node 12)
Injected packet length average = 1
Accepted packet length average = 1
Total in-flight flits = 3 (3 measured)
latency change    = 0.00884242
throughput change = 0.0987654
Class 0:
Packet latency average = 22.865
	minimum = 7
	maximum = 42
Network latency average = 22.865
	minimum = 7
	maximum = 42
Slowest packet = 4880
Flit latency average = 22.9167
	minimum = 7
	maximum = 42
Slowest flit = 4880
Fragmentation average = 0
	minimum = 0
	maximum = 0
Injected packet rate average = 0.00991667
	minimum = 0.006 (at node 3)
	maximum = 0.014 (at node 10)
Accepted packet rate average = 0.01
	minimum = 0 (at node 0)
	maximum = 0.16 (at node 12)
Injected flit rate average = 0.00991667
	minimum = 0.006 (at node 3)
	maximum = 0.014 (at node 10)
Accepted flit rate average= 0.01
	minimum = 0 (at node 0)
	maximum = 0.16 (at node 12)
Injected packet length average = 1
Accepted packet length average = 1
Total in-flight flits = 1 (1 measured)
latency change    = 0.0092059
throughput change = 0.0125
Class 0:
Packet latency average = 22.8602
	minimum = 7
	maximum = 46
Network latency average = 22.8602
	minimum = 7
	maximum = 46
Slowest packet = 5070
Flit latency average = 22.8985
	minimum = 7
	maximum = 46
Slowest flit = 5070
Fragmentation average = 0
	minimum = 0
	maximum = 0
Injected packet rate average = 0.0102188
	minimum = 0.0075 (at node 6)
	maximum = 0.015 (at node 15)
Accepted packet rate average = 0.0101563
	minimum = 0 (at node 0)
	maximum = 0.1625 (at node 12)
Injected flit rate average = 0.0102188
	minimum = 0.0075 (at node 6)
	maximum = 0.015 (at node 15)
Accepted flit rate average= 0.0101563
	minimum = 0 (at node 0)
	maximum = 0.1625 (at node 12)
Injected packet length average = 1
Accepted packet length average = 1
Total in-flight flits = 5 (5 measured)
latency change    = 0.000206929
throughput change = 0.0153846
Class 0:
Packet latency average = 22.7756
	minimum = 7
	maximum = 46
Network latency average = 22.7756
	minimum = 7
	maximum = 46
Slowest packet = 5070
Flit latency average = 22.8069
	minimum = 7
	maximum = 46
Slowest flit = 5070
Fragmentation average = 0
	minimum = 0
	maximum = 0
Injected packet rate average = 0.010075
	minimum = 0.0076 (at node 7)
	maximum = 0.0136 (at node 15)
Accepted packet rate average = 0.0101
	minimum = 0 (at node 0)
	maximum = 0.1616 (at node 12)
Injected flit rate average = 0.010075
	minimum = 0.0076 (at node 7)
	maximum = 0.0136 (at node 15)
Accepted flit rate average= 0.0101
	minimum = 0 (at node 0)
	maximum = 0.1616 (at node 12)
Injected packet length average = 1
Accepted packet length average = 1
Total in-flight flits = 2 (2 measured)
latency change    = 0.00371834
throughput change = 0.00556931
Draining all recorded packets ...
Draining remaining packets ...
Time taken is 4046 cycles
Class 0:
Packet latency average = 23.0299
	minimum = 7
	maximum = 42
Network latency average = 23.0299
	minimum = 7
	maximum = 42
Slowest packet = 5207
Flit latency average = 23.0299
	minimum = 7
	maximum = 42
Slowest flit = 5207
Fragmentation average = 0
	minimum = 0
	maximum = 0
Injected packet rate average = 0.00875
	minimum = 0.004 (at node 6)
	maximum = 0.016 (at node 3)
Accepted packet rate average = 0.008375
	minimum = 0 (at node 0)
	maximum = 0.134 (at node 12)
Injected flit rate average = 0.00875
	minimum = 0.004 (at node 6)
	maximum = 0.016 (at node 3)
Accepted flit rate average= 0.008375
	minimum = 0 (at node 0)
	maximum = 0.134 (at node 12)
Injected packet length average = 1
Accepted packet length average = 1
Total in-flight flits = 3 (0 measured)
latency change    = 1
throughput change = 1
Class 0:
Packet latency average = 22.0196
	minimum = 7
	maximum = 42
Network latency average = 22.0196
	minimum = 7
	maximum = 42
Slowest packet = 5207
Flit latency average = 22.0196
	minimum = 7
	maximum = 42
Slowest flit = 5207
Fragmentation average = 0
	minimum = 0
	maximum = 0
Injected packet rate average = 0.009625
	minimum = 0.005 (at node 4)
	maximum = 0.017 (at node 12)
Accepted packet rate average = 0.0095625
	minimum = 0 (at node 0)
	maximum = 0.153 (at node 12)
Injected flit rate average = 0.009625
	minimum = 0.005 (at node 4)
	maximum = 0.017 (at node 12)
Accepted flit rate average= 0.0095625
	minimum = 0 (at node 0)
	maximum = 0.153 (at node 12)
Injected packet length average = 1
Accepted packet length average = 1
Total in-flight flits = 1 (0 measured)
latency change    = 0.0458792
throughput change = 0.124183
Class 0:
Packet latency average = 22.0541
	minimum = 7
	maximum = 42
Network latency average = 22.0541
	minimum = 7
	maximum = 42
Slowest packet = 5381
Flit latency average = 22.0541
	minimum = 7
	maximum = 42
Slowest flit = 5381
Fragmentation average = 0
	minimum = 0
	maximum = 0
Injected packet rate average = 0.009375
	minimum = 0.004 (at node 5)
	maximum = 0.018 (at node 8)
Accepted packet rate average = 0.00925
	minimum = 0 (at node 0)
	maximum = 0.148 (at node 12)
Injected flit rate average = 0.009375
	minimum = 0.004 (at node 5)
	maximum = 0.018 (at node 8)
Accepted flit rate average= 0.00925
	minimum = 0 (at node 0)
	maximum = 0.148 (at node 12)
Injected packet length average = 1
Accepted packet length average = 1
Total in-flight flits = 2 (0 measured)
latency change    = 0.0015619
throughput change = 0.0337838
Warmed up ...Time used is 1500 cycles
Class 0:
Packet latency average = 21.8413
	minimum = 7
	maximum = 38
Network latency average = 21.8413
	minimum = 7
	maximum = 38
Slowest packet = 5434
Flit latency average = 21.9231
	minimum = 7
	maximum = 38
Slowest flit = 5434
Fragmentation average = 0
	minimum = 0
	maximum = 0
Injected packet rate average = 0.008125
	minimum = 0.004 (at node 2)
	maximum = 0.014 (at node 9)
Accepted packet rate average = 0.008125
	minimum = 0 (at node 0)
	maximum = 0.13 (at node 12)
Injected flit rate average = 0.008125
	minimum = 0.004 (at node 2)
	maximum = 0.014 (at node 9)
Accepted flit rate average= 0.008125
	minimum = 0 (at node 0)
	maximum = 0.13 (at node 12)
Injected packet length average = 1
Accepted packet length average = 1
Total in-flight flits = 2 (2 measured)
latency change    = 0.0097423
throughput change = 0.138462
Class 0:
Packet latency average = 20.8705
	minimum = 7
	maximum = 38
Network latency average = 20.8705
	minimum = 7
	maximum = 38
Slowest packet = 5434
Flit latency average = 20.922
	minimum = 7
	maximum = 38
Slowest flit = 5434
Fragmentation average = 0
	minimum = 0
	maximum = 0
Injected packet rate average = 0.0086875
	minimum = 0.004 (at node 11)
	maximum = 0.015 (at node 12)
Accepted packet rate average = 0.0088125
	minimum = 0 (at node 0)
	maximum = 0.141 (at node 12)
Injected flit rate average = 0.0086875
	minimum = 0.004 (at node 11)
	maximum = 0.015 (at node 12)
Accepted flit rate average= 0.0088125
	minimum = 0 (at node 0)
	maximum = 0.141 (at node 12)
Injected packet length average = 1
Accepted packet length average = 1
Total in-flight flits = 0 (0 measured)
latency change    = 0.0465138
throughput change = 0.0780142
Class 0:
Packet latency average = 20.9952
	minimum = 7
	maximum = 44
Network latency average = 20.9952
	minimum = 7
	maximum = 44
Slowest packet = 5562
Flit latency average = 21.0286
	minimum = 7
	maximum = 44
Slowest flit = 5562
Fragmentation average = 0
	minimum = 0
	maximum = 0
Injected packet rate average = 0.00883333
	minimum = 0.004 (at node 0)
	maximum = 0.0126667 (at node 12)
Accepted packet rate average = 0.00875
	minimum = 0 (at node 0)
	maximum = 0.14 (at node 12)
Injected flit rate average = 0.00883333
	minimum = 0.004 (at node 0)
	maximum = 0.0126667 (at node 12)
Accepted flit rate average= 0.00875
	minimum = 0 (at node 0)
	maximum = 0.14 (at node 12)
Injected packet length average = 1
Accepted packet length average = 1
Total in-flight flits = 4 (4 measured)
latency change    = 0.00593892
throughput change = 0.00714286
Class 0:
Packet latency average = 22.0903
	minimum = 7
	maximum = 44
Network latency average = 22.0903
	minimum = 7
	maximum = 44
Slowest packet = 5562
Flit latency average = 22.1069
	minimum = 7
	maximum = 44
Slowest flit = 5562
Fragmentation average = 0
	minimum = 0
	maximum = 0
Injected packet rate average = 0.00921875
	minimum = 0.0055 (at node 11)
	maximum = 0.014 (at node 6)
Accepted packet rate average = 0.0090625
	minimum = 0 (at node 0)
	maximum = 0.145 (at node 12)
Injected flit rate average = 0.00921875
	minimum = 0.0055 (at node 11)
	maximum = 0.014 (at node 6)
Accepted flit rate average= 0.0090625
	minimum = 0 (at node 0)
	maximum = 0.145 (at node 12)
Injected packet length average = 1
Accepted packet length average = 1
Total in-flight flits = 7 (7 measured)
latency change    = 0.0495732
throughput change = 0.0344828
Class 0:
Packet latency average = 22.0194
	minimum = 7
	maximum = 45
Network latency average = 22.0194
	minimum = 7
	maximum = 45
Slowest packet = 5722
Flit latency average = 22.0331
	minimum = 7
	maximum = 45
Slowest flit = 5722
Fragmentation average = 0
	minimum = 0
	maximum = 0
Injected packet rate average = 0.009125
	minimum = 0.0056 (at node 11)
	maximum = 0.0124 (at node 13)
Accepted packet rate average = 0.009075
	minimum = 0 (at node 0)
	maximum = 0.1452 (at node 12)
Injected flit rate average = 0.009125
	minimum = 0.0056 (at node 11)
	maximum = 0.0124 (at node 13)
Accepted flit rate average= 0.009075
	minimum = 0 (at node 0)
	maximum = 0.1452 (at node 12)
Injected packet length average = 1
Accepted packet length average = 1
Total in-flight flits = 4 (4 measured)
latency change    = 0.00321931
throughput change = 0.00137741
Draining all recorded packets ...
Draining remaining packets ...
Time taken is 4061 cycles
Class 0:
Packet latency average = 23.7284
	minimum = 7
	maximum = 55
Network latency average = 23.7284
	minimum = 7
	maximum = 55
Slowest packet = 5848
Flit latency average = 23.7284
	minimum = 7
	maximum = 55
Slowest flit = 5848
Fragmentation average = 0
	minimum = 0
	maximum = 0
Injected packet rate average = 0.01075
	minimum = 0.002 (at node 7)
	maximum = 0.02 (at node 1)
Accepted packet rate average = 0.010125
	minimum = 0 (at node 0)
	maximum = 0.162 (at node 12)
Injected flit rate average = 0.01075
	minimum = 0.002 (at node 7)
	maximum = 0.02 (at node 1)
Accepted flit rate average= 0.010125
	minimum = 0 (at node 0)
	maximum = 0.162 (at node 12)
Injected packet length average = 1
Accepted packet length average = 1
Total in-flight flits = 5 (0 measured)
latency change    = 1
throughput change = 1
Class 0:
Packet latency average = 22.8675
	minimum = 7
	maximum = 55
Network latency average = 22.8675
	minimum = 7
	maximum = 55
Slowest packet = 5848
Flit latency average = 22.8675
	minimum = 7
	maximum = 55
Slowest flit = 5848
Fragmentation average = 0
	minimum = 0
	maximum = 0
Injected packet rate average = 0.00975
	minimum = 0.004 (at node 9)
	maximum = 0.014 (at node 1)
Accepted packet rate average = 0.0094375
	minimum = 0 (at node 0)
	maximum = 0.151 (at node 12)
Injected flit rate average = 0.00975
	minimum = 0.004 (at node 9)
	maximum = 0.014 (at node 1)
Accepted flit rate average= 0.0094375
	minimum = 0 (at node 0)
	maximum = 0.151 (at node 12)
Injected packet length average = 1
Accepted packet length average = 1
Total in-flight flits = 5 (0 measured)
latency change    = 0.0376448
throughput change = 0.0728477
Class 0:
Packet latency average = 21.7529
	minimum = 7
	maximum = 45
Network latency average = 21.7529
	minimum = 7
	maximum = 45
Slowest packet = 5975
Flit latency average = 21.7529
	minimum = 7
	maximum = 45
Slowest flit = 5975
Fragmentation average = 0
	minimum = 0
	maximum = 0
Injected packet rate average = 0.0105
	minimum = 0.002 (at node 7)
	maximum = 0.016 (at node 0)
Accepted packet rate average = 0.010625
	minimum = 0 (at node 0)
	maximum = 0.17 (at node 12)
Injected flit rate average = 0.0105
	minimum = 0.002 (at node 7)
	maximum = 0.016 (at node 0)
Accepted flit rate average= 0.010625
	minimum = 0 (at node 0)
	maximum = 0.17 (at node 12)
Injected packet length average = 1
Accepted packet length average = 1
Total in-flight flits = 4 (0 measured)
latency change    = 0.0512394
throughput change = 0.111765
Warmed up ...Time used is 1500 cycles
Class 0:
Packet latency average = 24.2688
	minimum = 7
	maximum = 48
Network latency average = 24.2688
	minimum = 7
	maximum = 48
Slowest packet = 6065
Flit latency average = 24.2371
	minimum = 7
	maximum = 48
Slowest flit = 6065
Fragmentation average = 0
	minimum = 0
	maximum = 0
Injected packet rate average = 0.012
	minimum = 0.004 (at node 0)
	maximum = 0.02 (at node 11)
Accepted packet rate average = 0.012125
	minimum = 0 (at node 0)
	maximum = 0.194 (at node 12)
Injected flit rate average = 0.012
	minimum = 0.004 (at node 0)
	maximum = 0.02 (at node 11)
Accepted flit rate average= 0.012125
	minimum = 0 (at node 0)
	maximum = 0.194 (at node 12)
Injected packet length average = 1
Accepted packet length average = 1
Total in-flight flits = 3 (3 measured)
latency change    = 0.103667
throughput change = 0.123711
Class 0:
Packet latency average = 23
	minimum = 7
	maximum = 48
Network latency average = 23
	minimum = 7
	maximum = 48
Slowest packet = 6065
Flit latency average = 23.0115
	minimum = 7
	maximum = 48
Slowest flit = 6065
Fragmentation average = 0
	minimum = 0
	maximum = 0
Injected packet rate average = 0.0109375
	minimum = 0.005 (at node 1)
	maximum = 0.017 (at node 6)
Accepted packet rate average = 0.010875
	minimum = 0 (at node 0)
	maximum = 0.174 (at node 12)
Injected flit rate average = 0.0109375
	minimum = 0.005 (at node 1)
	maximum = 0.017 (at node 6)
Accepted flit rate average= 0.010875
	minimum = 0 (at node 0)
	maximum = 0.174 (at node 12)
Injected packet length average = 1
Accepted packet length average = 1
Total in-flight flits = 5 (5 measured)
latency change    = 0.055166
throughput change = 0.114943
Class 0:
Packet latency average = 23.3347
	minimum = 7
	maximum = 48
Network latency average = 23.3347
	minimum = 7
	maximum = 48
Slowest packet = 6065
Flit latency average = 23.3374
	minimum = 7
	maximum = 48
Slowest flit = 6065
Fragmentation average = 0
	minimum = 0
	maximum = 0
Injected packet rate average = 0.0101667
	minimum = 0.006 (at node 13)
	maximum = 0.016 (at node 6)
Accepted packet rate average = 0.010125
	minimum = 0 (at node 0)
	maximum = 0.162 (at node 12)
Injected flit rate average = 0.0101667
	minimum = 0.006 (at node 13)
	maximum = 0.016 (at node 6)
Accepted flit rate average= 0.010125
	minimum = 0 (at node 0)
	maximum = 0.162 (at node 12)
Injected packet length average = 1
Accepted packet length average = 1
Total in-flight flits = 5 (5 measured)
latency change    = 0.0143446
throughput change = 0.0740741
Class 0:
Packet latency average = 23.1184
	minimum = 7
	maximum = 48
Network latency average = 23.1184
	minimum = 7
	maximum = 48
Slowest packet = 6065
Flit latency average = 23.1231
	minimum = 7
	maximum = 48
Slowest flit = 6065
Fragmentation average = 0
	minimum = 0
	maximum = 0
Injected packet rate average = 0.0100938
	minimum = 0.0075 (at node 13)
	maximum = 0.014 (at node 11)
Accepted packet rate average = 0.0101563
	minimum = 0 (at node 0)
	maximum = 0.1625 (at node 12)
Injected flit rate average = 0.0100938
	minimum = 0.0075 (at node 13)
	maximum = 0.014 (at node 11)
Accepted flit rate average= 0.0101563
	minimum = 0 (at node 0)
	maximum = 0.1625 (at node 12)
Injected packet length average = 1
Accepted packet length average = 1
Total in-flight flits = 2 (2 measured)
latency change    = 0.00935827
throughput change = 0.00307692
Class 0:
Packet latency average = 23.2244
	minimum = 7
	maximum = 48
Network latency average = 23.2244
	minimum = 7
	maximum = 48
Slowest packet = 6065
Flit latency average = 23.2271
	minimum = 7
	maximum = 48
Slowest flit = 6065
Fragmentation average = 0
	minimum = 0
	maximum = 0
Injected packet rate average = 0.0104
	minimum = 0.008 (at node 13)
	maximum = 0.0136 (at node 2)
Accepted packet rate average = 0.01035
	minimum = 0 (at node 0)
	maximum = 0.1656 (at node 12)
Injected flit rate average = 0.0104
	minimum = 0.008 (at node 13)
	maximum = 0.0136 (at node 2)
Accepted flit rate average= 0.01035
	minimum = 0 (at node 0)
	maximum = 0.1656 (at node 12)
Injected packet length average = 1
Accepted packet length average = 1
Total in-flight flits = 6 (6 measured)
latency change    = 0.00456461
throughput change = 0.0187198
Class 0:
Packet latency average = 23.1592
	minimum = 7
	maximum = 48
Network latency average = 23.1592
	minimum = 7
	maximum = 48
Slowest packet = 6065
Flit latency average = 23.1619
	minimum = 7
	maximum = 48
Slowest flit = 6065
Fragmentation average = 0
	minimum = 0
	maximum = 0
Injected packet rate average = 0.0103125
	minimum = 0.008 (at node 3)
	maximum = 0.013 (at node 7)
Accepted packet rate average = 0.0102917
	minimum = 0 (at node 0)
	maximum = 0.164667 (at node 12)
Injected flit rate average = 0.0103125
	minimum = 0.008 (at node 3)
	maximum = 0.013 (at node 7)
Accepted flit rate average= 0.0102917
	minimum = 0 (at node 0)
	maximum = 0.164667 (at node 12)
Injected packet length average = 1
Accepted packet length average = 1
Total in-flight flits = 5 (5 measured)
latency change    = 0.00281558
throughput change = 0.00566802
Draining all recorded packets ...
Draining remaining packets ...
Time taken is 4537 cycles
Class 0:
Packet latency average = 22.1609
	minimum = 7
	maximum = 37
Network latency average = 22.1609
	minimum = 7
	maximum = 37
Slowest packet = 6546
Flit latency average = 22.1609
	minimum = 7
	maximum = 37
Slowest flit = 6546
Fragmentation average = 0
	minimum = 0
	maximum = 0
Injected packet rate average = 0.011125
	minimum = 0.004 (at node 6)
	maximum = 0.018 (at node 2)
Accepted packet rate average = 0.010875
	minimum = 0 (at node 0)
	maximum = 0.174 (at node 12)
Injected flit rate average = 0.011125
	minimum = 0.004 (at node 6)
	maximum = 0.018 (at node 2)
Accepted flit rate average= 0.010875
	minimum = 0 (at node 0)
	maximum = 0.174 (at node 12)
Injected packet length average = 1
Accepted packet length average = 1
Total in-flight flits = 2 (0 measured)
latency change    = 1
throughput change = 1
Class 0:
Packet latency average = 23.2156
	minimum = 7
	maximum = 47
Network latency average = 23.2156
	minimum = 7
	maximum = 47
Slowest packet = 6642
Flit latency average = 23.2156
	minimum = 7
	maximum = 47
Slowest flit = 6642
Fragmentation average = 0
	minimum = 0
	maximum = 0
Injected packet rate average = 0.0105
	minimum = 0.005 (at node 0)
	maximum = 0.015 (at node 2)
Accepted packet rate average = 0.0104375
	minimum = 0 (at node 0)
	maximum = 0.167 (at node 12)
Injected flit rate average = 0.0105
	minimum = 0.005 (at node 0)
	maximum = 0.015 (at node 2)
Accepted flit rate average= 0.0104375
	minimum = 0 (at node 0)
	maximum = 0.167 (at node 12)
Injected packet length average = 1
Accepted packet length average = 1
Total in-flight flits = 1 (0 measured)
latency change    = 0.0454285
throughput change = 0.0419162
Class 0:
Packet latency average = 22.3896
	minimum = 7
	maximum = 38
Network latency average = 22.3896
	minimum = 7
	maximum = 38
Slowest packet = 6693
Flit latency average = 22.3896
	minimum = 7
	maximum = 38
Slowest flit = 6693
Fragmentation average = 0
	minimum = 0
	maximum = 0
Injected packet rate average = 0.01
	minimum = 0.004 (at node 0)
	maximum = 0.014 (at node 4)
Accepted packet rate average = 0.009625
	minimum = 0 (at node 0)
	maximum = 0.154 (at node 12)
Injected flit rate average = 0.01
	minimum = 0.004 (at node 0)
	maximum = 0.014 (at node 4)
Accepted flit rate average= 0.009625
	minimum = 0 (at node 0)
	maximum = 0.154 (at node 12)
Injected packet length average = 1
Accepted packet length average = 1
Total in-flight flits = 4 (0 measured)
latency change    = 0.0368903
throughput change = 0.0844156
Warmed up ...Time used is 1500 cycles
Class 0:
Packet latency average = 24.0886
	minimum = 7
	maximum = 40
Network latency average = 24.0886
	minimum = 7
	maximum = 40
Slowest packet = 6774
Flit latency average = 23.9277
	minimum = 7
	maximum = 40
Slowest flit = 6774
Fragmentation average = 0
	minimum = 0
	maximum = 0
Injected packet rate average = 0.01025
	minimum = 0.002 (at node 13)
	maximum = 0.014 (at node 1)
Accepted packet rate average = 0.010375
	minimum = 0 (at node 0)
	maximum = 0.166 (at node 12)
Injected flit rate average = 0.01025
	minimum = 0.002 (at node 13)
	maximum = 0.014 (at node 1)
Accepted flit rate average= 0.010375
	minimum = 0 (at node 0)
	maximum = 0.166 (at node 12)
Injected packet length average = 1
Accepted packet length average = 1
Total in-flight flits = 3 (3 measured)
latency change    = 0.0705312
throughput change = 0.0722892
Class 0:
Packet latency average = 23.4636
	minimum = 7
	maximum = 40
Network latency average = 23.4636
	minimum = 7
	maximum = 40
Slowest packet = 6774
Flit latency average = 23.3935
	minimum = 7
	maximum = 40
Slowest flit = 6774
Fragmentation average = 0
	minimum = 0
	maximum = 0
Injected packet rate average = 0.0096875
	minimum = 0.005 (at node 13)
	maximum = 0.013 (at node 14)
Accepted packet rate average = 0.0096875
	minimum = 0 (at node 0)
	maximum = 0.155 (at node 12)
Injected flit rate average = 0.0096875
	minimum = 0.005 (at node 13)
	maximum = 0.013 (at node 14)
Accepted flit rate average= 0.0096875
	minimum = 0 (at node 0)
	maximum = 0.155 (at node 12)
Injected packet length average = 1
Accepted packet length average = 1
Total in-flight flits = 4 (4 measured)
latency change    = 0.0266384
throughput change = 0.0709677
Class 0:
Packet latency average = 22.9498
	minimum = 7
	maximum = 47
Network latency average = 22.9498
	minimum = 7
	maximum = 47
Slowest packet = 6943
Flit latency average = 22.9136
	minimum = 7
	maximum = 47
Slowest flit = 6943
Fragmentation average = 0
	minimum = 0
	maximum = 0
Injected packet rate average = 0.010125
	minimum = 0.00666667 (at node 2)
	maximum = 0.0153333 (at node 14)
Accepted packet rate average = 0.010125
	minimum = 0 (at node 0)
	maximum = 0.162 (at node 12)
Injected flit rate average = 0.010125
	minimum = 0.00666667 (at node 2)
	maximum = 0.0153333 (at node 14)
Accepted flit rate average= 0.010125
	minimum = 0 (at node 0)
	maximum = 0.162 (at node 12)
Injected packet length average = 1
Accepted packet length average = 1
Total in-flight flits = 4 (4 measured)
latency change    = 0.0223874
throughput change = 0.0432099
Class 0:
Packet latency average = 22.9497
	minimum = 7
	maximum = 47
Network latency average = 22.9497
	minimum = 7
	maximum = 47
Slowest packet = 6943
Flit latency average = 22.9224
	minimum = 7
	maximum = 47
Slowest flit = 6943
Fragmentation average = 0
	minimum = 0
	maximum = 0
Injected packet rate average = 0.010125
	minimum = 0.008 (at node 11)
	maximum = 0.0145 (at node 14)
Accepted packet rate average = 0.0100625
	minimum = 0 (at node 0)
	maximum = 0.161 (at node 12)
Injected flit rate average = 0.010125
	minimum = 0.008 (at node 11)
	maximum = 0.0145 (at node 14)
Accepted flit rate average= 0.0100625
	minimum = 0 (at node 0)
	maximum = 0.161 (at node 12)
Injected packet length average = 1
Accepted packet length average = 1
Total in-flight flits = 6 (6 measured)
latency change    = 4.58657e-06
throughput change = 0.00621118
Class 0:
Packet latency average = 22.9474
	minimum = 7
	maximum = 47
Network latency average = 22.9474
	minimum = 7
	maximum = 47
Slowest packet = 6943
Flit latency average = 22.9256
	minimum = 7
	maximum = 47
Slowest flit = 6943
Fragmentation average = 0
	minimum = 0
	maximum = 0
Injected packet rate average = 0.009975
	minimum = 0.0072 (at node 12)
	maximum = 0.0148 (at node 14)
Accepted packet rate average = 0.010075
	minimum = 0 (at node 0)
	maximum = 0.1612 (at node 12)
Injected flit rate average = 0.009975
	minimum = 0.0072 (at node 12)
	maximum = 0.0148 (at node 14)
Accepted flit rate average= 0.010075
	minimum = 0 (at node 0)
	maximum = 0.1612 (at node 12)
Injected packet length average = 1
Accepted packet length average = 1
Total in-flight flits = 0 (0 measured)
latency change    = 0.000100975
throughput change = 0.00124069
Draining all recorded packets ...
Draining remaining packets ...
Time taken is 4001 cycles
Class 0:
Packet latency average = 24.7553
	minimum = 7
	maximum = 52
Network latency average = 24.7553
	minimum = 7
	maximum = 52
Slowest packet = 7234
Flit latency average = 24.7553
	minimum = 7
	maximum = 52
Slowest flit = 7234
Fragmentation average = 0
	minimum = 0
	maximum = 0
Injected packet rate average = 0.012625
	minimum = 0.004 (at node 2)
	maximum = 0.022 (at node 3)
Accepted packet rate average = 0.01175
	minimum = 0 (at node 0)
	maximum = 0.188 (at node 12)
Injected flit rate average = 0.012625
	minimum = 0.004 (at node 2)
	maximum = 0.022 (at node 3)
Accepted flit rate average= 0.01175
	minimum = 0 (at node 0)
	maximum = 0.188 (at node 12)
Injected packet length average = 1
Accepted packet length average = 1
Total in-flight flits = 7 (0 measured)
latency change    = 1
throughput change = 1
Class 0:
Packet latency average = 25.1333
	minimum = 7
	maximum = 52
Network latency average = 25.1333
	minimum = 7
	maximum = 52
Slowest packet = 7234
Flit latency average = 25.1333
	minimum = 7
	maximum = 52
Slowest flit = 7234
Fragmentation average = 0
	minimum = 0
	maximum = 0
Injected packet rate average = 0.0124375
	minimum = 0.004 (at node 12)
	maximum = 0.021 (at node 15)
Accepted packet rate average = 0.0121875
	minimum = 0 (at node 0)
	maximum = 0.195 (at node 12)
Injected flit rate average = 0.0124375
	minimum = 0.004 (at node 12)
	maximum = 0.021 (at node 15)
Accepted flit rate average= 0.0121875
	minimum = 0 (at node 0)
	maximum = 0.195 (at node 12)
Injected packet length average = 1
Accepted packet length average = 1
Total in-flight flits = 4 (0 measured)
latency change    = 0.0150404
throughput change = 0.0358974
Class 0:
Packet latency average = 23.0256
	minimum = 7
	maximum = 46
Network latency average = 23.0256
	minimum = 7
	maximum = 46
Slowest packet = 7370
Flit latency average = 23.0256
	minimum = 7
	maximum = 46
Slowest flit = 7370
Fragmentation average = 0
	minimum = 0
	maximum = 0
Injected packet rate average = 0.0095
	minimum = 0.002 (at node 8)
	maximum = 0.018 (at node 7)
Accepted packet rate average = 0.00975
	minimum = 0 (at node 0)
	maximum = 0.156 (at node 12)
Injected flit rate average = 0.0095
	minimum = 0.002 (at node 8)
	maximum = 0.018 (at node 7)
Accepted flit rate average= 0.00975
	minimum = 0 (at node 0)
	maximum = 0.156 (at node 12)
Injected packet length average = 1
Accepted packet length average = 1
Total in-flight flits = 2 (0 measured)
latency change    = 0.0915367
throughput change = 0.25
Warmed up ...Time used is 1500 cycles
Class 0:
Packet latency average = 21.9265
	minimum = 7
	maximum = 40
Network latency average = 21.9265
	minimum = 7
	maximum = 40
Slowest packet = 7486
Flit latency average = 22
	minimum = 7
	maximum = 40
Slowest flit = 7486
Fragmentation average = 0
	minimum = 0
	maximum = 0
Injected packet rate average = 0.00925
	minimum = 0.004 (at node 2)
	maximum = 0.014 (at node 4)
Accepted packet rate average = 0.00875
	minimum = 0 (at node 0)
	maximum = 0.14 (at node 12)
Injected flit rate average = 0.00925
	minimum = 0.004 (at node 2)
[...]
latency change    = 0.020364
throughput change = 0.142857
Class 0:
Packet latency average = 24.1744
	minimum = 7
	maximum = 47
Network latency average = 24.1744
	minimum = 7
	maximum = 47
Slowest packet = 31490
Flit latency average = 24.1744
	minimum = 7
	maximum = 47
Slowest flit = 31490
Fragmentation average = 0
	minimum = 0
	maximum = 0
Injected packet rate average = 0.010875
	minimum = 0.004 (at node 13)
	maximum = 0.02 (at node 2)
Accepted packet rate average = 0.01075
	minimum = 0 (at node 0)
	maximum = 0.172 (at node 12)
Injected flit rate average = 0.010875
	minimum = 0.004 (at node 13)
	maximum = 0.02 (at node 2)
Accepted flit rate average= 0.01075
	minimum = 0 (at node 0)
	maximum = 0.172 (at node 12)
Injected packet length average = 1
Accepted packet length average = 1
Total in-flight flits = 3 (0 measured)
latency change    = 0.00549142
throughput change = 0.0232558
Warmed up ...Time used is 1500 cycles
Class 0:
Packet latency average = 23.0811
	minimum = 7
	maximum = 38
Network latency average = 23.0811
	minimum = 7
	maximum = 38
Slowest packet = 31620
Flit latency average = 23.3117
	minimum = 7
	maximum = 38
Slowest flit = 31620
Fragmentation average = 0
	minimum = 0
	maximum = 0
Injected packet rate average = 0.00975
	minimum = 0.006 (at node 0)
	maximum = 0.016 (at node 3)
Accepted packet rate average = 0.009625
	minimum = 0 (at node 0)
	maximum = 0.154 (at node 12)
Injected flit rate average = 0.00975
	minimum = 0.006 (at node 0)
	maximum = 0.016 (at node 3)
Accepted flit rate average= 0.009625
	minimum = 0 (at node 0)
	maximum = 0.154 (at node 12)
Injected packet length average = 1
Accepted packet length average = 1
Total in-flight flits = 4 (4 measured)
latency change    = 0.0473694
throughput change = 0.116883
Class 0:
Packet latency average = 23.8836
	minimum = 7
	maximum = 40
Network latency average = 23.8836
	minimum = 7
	maximum = 40
Slowest packet = 31667
Flit latency average = 23.9866
	minimum = 7
	maximum = 40
Slowest flit = 31667
Fragmentation average = 0
	minimum = 0
	maximum = 0
Injected packet rate average = 0.009625
	minimum = 0.007 (at node 12)
	maximum = 0.015 (at node 7)
Accepted packet rate average = 0.0093125
	minimum = 0 (at node 0)
	maximum = 0.149 (at node 12)
Injected flit rate average = 0.009625
	minimum = 0.007 (at node 12)
	maximum = 0.015 (at node 7)
Accepted flit rate average= 0.0093125
	minimum = 0 (at node 0)
	maximum = 0.149 (at node 12)
Injected packet length average = 1
Accepted packet length average = 1
Total in-flight flits = 8 (8 measured)
latency change    = 0.0335997
throughput change = 0.033557
Class 0:
Packet latency average = 23.9771
	minimum = 7
	maximum = 40
Network latency average = 23.9771
	minimum = 7
	maximum = 40
Slowest packet = 31667
Flit latency average = 24.0452
	minimum = 7
	maximum = 40
Slowest flit = 31667
Fragmentation average = 0
	minimum = 0
	maximum = 0
Injected packet rate average = 0.00916667
	minimum = 0.00533333 (at node 15)
	maximum = 0.012 (at node 3)
Accepted packet rate average = 0.00920833
	minimum = 0 (at node 0)
	maximum = 0.147333 (at node 12)
Injected flit rate average = 0.00916667
	minimum = 0.00533333 (at node 15)
	maximum = 0.012 (at node 3)
Accepted flit rate average= 0.00920833
	minimum = 0 (at node 0)
	maximum = 0.147333 (at node 12)
Injected packet length average = 1
Accepted packet length average = 1
Total in-flight flits = 2 (2 measured)
latency change    = 0.00389967
throughput change = 0.0113122
Class 0:
Packet latency average = 23.2302
	minimum = 7
	maximum = 40
Network latency average = 23.2302
	minimum = 7
	maximum = 40
Slowest packet = 31667
Flit latency average = 23.2891
	minimum = 7
	maximum = 40
Slowest flit = 31667
Fragmentation average = 0
	minimum = 0
	maximum = 0
Injected packet rate average = 0.00915625
	minimum = 0.0055 (at node 15)
	maximum = 0.012 (at node 3)
Accepted packet rate average = 0.0091875
	minimum = 0 (at node 0)
	maximum = 0.147 (at node 12)
Injected flit rate average = 0.00915625
	minimum = 0.0055 (at node 15)
	maximum = 0.012 (at node 3)
Accepted flit rate average= 0.0091875
	minimum = 0 (at node 0)
	maximum = 0.147 (at node 12)
Injected packet length average = 1
Accepted packet length average = 1
Total in-flight flits = 2 (2 measured)
latency change    = 0.0321488
throughput change = 0.00226757
Draining all recorded packets ...
Draining remaining packets ...
Time taken is 3528 cycles
Class 0:
Packet latency average = 23.4225
	minimum = 7
	maximum = 39
Network latency average = 23.4225
	minimum = 7
	maximum = 39
Slowest packet = 31917
Flit latency average = 23.4225
	minimum = 7
	maximum = 39
Slowest flit = 31917
Fragmentation average = 0
	minimum = 0
	maximum = 0
Injected packet rate average = 0.009625
	minimum = 0.004 (at node 8)
	maximum = 0.016 (at node 10)
Accepted packet rate average = 0.008875
	minimum = 0 (at node 0)
	maximum = 0.142 (at node 12)
Injected flit rate average = 0.009625
	minimum = 0.004 (at node 8)
	maximum = 0.016 (at node 10)
Accepted flit rate average= 0.008875
	minimum = 0 (at node 0)
	maximum = 0.142 (at node 12)
Injected packet length average = 1
Accepted packet length average = 1
Total in-flight flits = 6 (0 measured)
latency change    = 1
throughput change = 1
Class 0:
Packet latency average = 22.965
	minimum = 7
	maximum = 39
Network latency average = 22.965
	minimum = 7
	maximum = 39
Slowest packet = 31917
Flit latency average = 22.965
	minimum = 7
	maximum = 39
Slowest flit = 31917
Fragmentation average = 0
	minimum = 0
	maximum = 0
Injected packet rate average = 0.00925
	minimum = 0.004 (at node 8)
	maximum = 0.012 (at node 10)
Accepted packet rate average = 0.0089375
	minimum = 0 (at node 0)
	maximum = 0.143 (at node 12)
Injected flit rate average = 0.00925
	minimum = 0.004 (at node 8)
	maximum = 0.012 (at node 10)
Accepted flit rate average= 0.0089375
	minimum = 0 (at node 0)
	maximum = 0.143 (at node 12)
Injected packet length average = 1
Accepted packet length average = 1
Total in-flight flits = 5 (0 measured)
latency change    = 0.0199216
throughput change = 0.00699301
Class 0:
Packet latency average = 22.1585
	minimum = 7
	maximum = 39
Network latency average = 22.1585
	minimum = 7
	maximum = 39
Slowest packet = 32081
Flit latency average = 22.1585
	minimum = 7
	maximum = 39
Slowest flit = 32081
Fragmentation average = 0
	minimum = 0
	maximum = 0
Injected packet rate average = 0.009875
	minimum = 0.004 (at node 3)
	maximum = 0.016 (at node 10)
Accepted packet rate average = 0.01025
	minimum = 0 (at node 0)
	maximum = 0.164 (at node 12)
Injected flit rate average = 0.009875
	minimum = 0.004 (at node 3)
	maximum = 0.016 (at node 10)
Accepted flit rate average= 0.01025
	minimum = 0 (at node 0)
	maximum = 0.164 (at node 12)
Injected packet length average = 1
Accepted packet length average = 1
Total in-flight flits = 2 (0 measured)
latency change    = 0.0363967
throughput change = 0.128049
Warmed up ...Time used is 1500 cycles
Class 0:
Packet latency average = 23.4853
	minimum = 7
	maximum = 45
Network latency average = 23.4853
	minimum = 7
	maximum = 45
Slowest packet = 32102
Flit latency average = 23.5143
	minimum = 7
	maximum = 45
Slowest flit = 32102
Fragmentation average = 0
	minimum = 0
	maximum = 0
Injected packet rate average = 0.009125
	minimum = 0.002 (at node 1)
	maximum = 0.018 (at node 3)
Accepted packet rate average = 0.00875
	minimum = 0 (at node 0)
	maximum = 0.14 (at node 12)
Injected flit rate average = 0.009125
	minimum = 0.002 (at node 1)
	maximum = 0.018 (at node 3)
Accepted flit rate average= 0.00875
	minimum = 0 (at node 0)
	maximum = 0.14 (at node 12)
Injected packet length average = 1
Accepted packet length average = 1
Total in-flight flits = 5 (5 measured)
latency change    = 0.0564931
throughput change = 0.171429
Class 0:
Packet latency average = 23.4238
	minimum = 7
	maximum = 46
Network latency average = 23.4238
	minimum = 7
	maximum = 46
Slowest packet = 32221
Flit latency average = 23.4379
	minimum = 7
	maximum = 46
Slowest flit = 32221
Fragmentation average = 0
	minimum = 0
	maximum = 0
Injected packet rate average = 0.009625
	minimum = 0.005 (at node 0)
	maximum = 0.014 (at node 10)
Accepted packet rate average = 0.0095625
	minimum = 0 (at node 0)
	maximum = 0.153 (at node 12)
Injected flit rate average = 0.009625
	minimum = 0.005 (at node 0)
	maximum = 0.014 (at node 10)
Accepted flit rate average= 0.0095625
	minimum = 0 (at node 0)
	maximum = 0.153 (at node 12)
Injected packet length average = 1
Accepted packet length average = 1
Total in-flight flits = 3 (3 measured)
latency change    = 0.00262353
throughput change = 0.0849673
Class 0:
Packet latency average = 23.7639
	minimum = 7
	maximum = 57
Network latency average = 23.7639
	minimum = 7
	maximum = 57
Slowest packet = 32259
Flit latency average = 23.7702
	minimum = 7
	maximum = 57
Slowest flit = 32259
Fragmentation average = 0
	minimum = 0
	maximum = 0
Injected packet rate average = 0.00983333
	minimum = 0.00666667 (at node 1)
	maximum = 0.0153333 (at node 8)
Accepted packet rate average = 0.00979167
	minimum = 0 (at node 0)
	maximum = 0.156667 (at node 12)
Injected flit rate average = 0.00983333
	minimum = 0.00666667 (at node 1)
	maximum = 0.0153333 (at node 8)
Accepted flit rate average= 0.00979167
	minimum = 0 (at node 0)
	maximum = 0.156667 (at node 12)
Injected packet length average = 1
Accepted packet length average = 1
Total in-flight flits = 3 (3 measured)
latency change    = 0.0143119
throughput change = 0.0234043
Class 0:
Packet latency average = 22.6796
	minimum = 7
	maximum = 57
Network latency average = 22.6796
	minimum = 7
	maximum = 57
Slowest packet = 32259
Flit latency average = 22.6913
	minimum = 7
	maximum = 57
Slowest flit = 32259
Fragmentation average = 0
	minimum = 0
	maximum = 0
Injected packet rate average = 0.0098125
	minimum = 0.0065 (at node 1)
	maximum = 0.017 (at node 8)
Accepted packet rate average = 0.00971875
	minimum = 0 (at node 0)
	maximum = 0.1555 (at node 12)
Injected flit rate average = 0.0098125
	minimum = 0.0065 (at node 1)
	maximum = 0.017 (at node 8)
Accepted flit rate average= 0.00971875
	minimum = 0 (at node 0)
	maximum = 0.1555 (at node 12)
Injected packet length average = 1
Accepted packet length average = 1
Total in-flight flits = 5 (5 measured)
latency change    = 0.0478111
throughput change = 0.00750268
Class 0:
Packet latency average = 22.8235
	minimum = 7
	maximum = 57
Network latency average = 22.8235
	minimum = 7
	maximum = 57
Slowest packet = 32259
Flit latency average = 22.8324
	minimum = 7
	maximum = 57
Slowest flit = 32259
Fragmentation average = 0
	minimum = 0
	maximum = 0
Injected packet rate average = 0.009375
	minimum = 0.0064 (at node 0)
	maximum = 0.0152 (at node 8)
Accepted packet rate average = 0.0094
	minimum = 0 (at node 0)
	maximum = 0.1504 (at node 12)
Injected flit rate average = 0.009375
	minimum = 0.0064 (at node 0)
	maximum = 0.0152 (at node 8)
Accepted flit rate average= 0.0094
	minimum = 0 (at node 0)
	maximum = 0.1504 (at node 12)
Injected packet length average = 1
Accepted packet length average = 1
Total in-flight flits = 1 (1 measured)
latency change    = 0.00630568
throughput change = 0.0339096
Draining all recorded packets ...
Draining remaining packets ...
Time taken is 4042 cycles
Class 0:
Packet latency average = 21.8235
	minimum = 7
	maximum = 39
Network latency average = 21.8235
	minimum = 7
	maximum = 39
Slowest packet = 32536
Flit latency average = 21.8235
	minimum = 7
	maximum = 39
Slowest flit = 32536
Fragmentation average = 0
	minimum = 0
	maximum = 0
Injected packet rate average = 0.011
	minimum = 0.002 (at node 1)
	maximum = 0.02 (at node 2)
Accepted packet rate average = 0.010625
	minimum = 0 (at node 0)
	maximum = 0.17 (at node 12)
Injected flit rate average = 0.011
	minimum = 0.002 (at node 1)
	maximum = 0.02 (at node 2)
Accepted flit rate average= 0.010625
	minimum = 0 (at node 0)
	maximum = 0.17 (at node 12)
Injected packet length average = 1
Accepted packet length average = 1
Total in-flight flits = 3 (0 measured)
latency change    = 1
throughput change = 1
Class 0:
Packet latency average = 22.1792
	minimum = 7
	maximum = 39
Network latency average = 22.1792
	minimum = 7
	maximum = 39
Slowest packet = 32536
Flit latency average = 22.1792
	minimum = 7
	maximum = 39
Slowest flit = 32536
Fragmentation average = 0
	minimum = 0
	maximum = 0
Injected packet rate average = 0.0110625
	minimum = 0.004 (at node 7)
	maximum = 0.019 (at node 2)
Accepted packet rate average = 0.0108125
	minimum = 0 (at node 0)
	maximum = 0.173 (at node 12)
Injected flit rate average = 0.0110625
	minimum = 0.004 (at node 7)
	maximum = 0.019 (at node 2)
Accepted flit rate average= 0.0108125
	minimum = 0 (at node 0)
	maximum = 0.173 (at node 12)
Injected packet length average = 1
Accepted packet length average = 1
Total in-flight flits = 4 (0 measured)
latency change    = 0.0160358
throughput change = 0.017341
Class 0:
Packet latency average = 22.338
	minimum = 7
	maximum = 40
Network latency average = 22.338
	minimum = 7
	maximum = 40
Slowest packet = 32651
Flit latency average = 22.338
	minimum = 7
	maximum = 40
Slowest flit = 32651
Fragmentation average = 0
	minimum = 0
	maximum = 0
Injected packet rate average = 0.0085
	minimum = 0.002 (at node 10)
	maximum = 0.016 (at node 9)
Accepted packet rate average = 0.008875
	minimum = 0 (at node 0)
	maximum = 0.142 (at node 12)
Injected flit rate average = 0.0085
	minimum = 0.002 (at node 10)
	maximum = 0.016 (at node 9)
Accepted flit rate average= 0.008875
	minimum = 0 (at node 0)
	maximum = 0.142 (at node 12)
Injected packet length average = 1
Accepted packet length average = 1
Total in-flight flits = 1 (0 measured)
latency change    = 0.00711063
throughput change = 0.21831
Warmed up ...Time used is 1500 cycles
Class 0:
Packet latency average = 20.1286
	minimum = 7
	maximum = 37
Network latency average = 20.1286
	minimum = 7
	maximum = 37
Slowest packet = 32780
Flit latency average = 20.2958
	minimum = 7
	maximum = 37
Slowest flit = 32780
Fragmentation average = 0
	minimum = 0
	maximum = 0
Injected packet rate average = 0.009625
	minimum = 0.002 (at node 5)
	maximum = 0.02 (at node 4)
Accepted packet rate average = 0.008875
	minimum = 0 (at node 0)
	maximum = 0.142 (at node 12)
Injected flit rate average = 0.009625
	minimum = 0.002 (at node 5)
	maximum = 0.02 (at node 4)
Accepted flit rate average= 0.008875
	minimum = 0 (at node 0)
	maximum = 0.142 (at node 12)
Injected packet length average = 1
Accepted packet length average = 1
Total in-flight flits = 7 (7 measured)
latency change    = 0.109767
throughput change = 0
Class 0:
Packet latency average = 22.4324
	minimum = 7
	maximum = 38
Network latency average = 22.4324
	minimum = 7
	maximum = 38
Slowest packet = 32790
Flit latency average = 22.4966
	minimum = 7
	maximum = 38
Slowest flit = 32790
Fragmentation average = 0
	minimum = 0
	maximum = 0
Injected packet rate average = 0.0096875
	minimum = 0.004 (at node 13)
	maximum = 0.015 (at node 4)
Accepted packet rate average = 0.0093125
	minimum = 0 (at node 0)
	maximum = 0.149 (at node 12)
Injected flit rate average = 0.0096875
	minimum = 0.004 (at node 13)
	maximum = 0.015 (at node 4)
Accepted flit rate average= 0.0093125
	minimum = 0 (at node 0)
	maximum = 0.149 (at node 12)
Injected packet length average = 1
Accepted packet length average = 1
Total in-flight flits = 7 (7 measured)
latency change    = 0.102702
throughput change = 0.0469799
Class 0:
Packet latency average = 23.2954
	minimum = 7
	maximum = 41
Network latency average = 23.2954
	minimum = 7
	maximum = 41
Slowest packet = 32878
Flit latency average = 23.3319
	minimum = 7
	maximum = 41
Slowest flit = 32878
Fragmentation average = 0
	minimum = 0
	maximum = 0
Injected packet rate average = 0.010125
	minimum = 0.006 (at node 13)
	maximum = 0.0126667 (at node 10)
Accepted packet rate average = 0.00991667
	minimum = 0 (at node 0)
	maximum = 0.158667 (at node 12)
Injected flit rate average = 0.010125
	minimum = 0.006 (at node 13)
	maximum = 0.0126667 (at node 10)
Accepted flit rate average= 0.00991667
	minimum = 0 (at node 0)
	maximum = 0.158667 (at node 12)
Injected packet length average = 1
Accepted packet length average = 1
Total in-flight flits = 6 (6 measured)
latency change    = 0.0370428
throughput change = 0.0609244
Class 0:
Packet latency average = 23.2065
	minimum = 7
	maximum = 41
Network latency average = 23.2065
	minimum = 7
	maximum = 41
Slowest packet = 32878
Flit latency average = 23.2347
	minimum = 7
	maximum = 41
Slowest flit = 32878
Fragmentation average = 0
	minimum = 0
	maximum = 0
Injected packet rate average = 0.00975
	minimum = 0.007 (at node 5)
	maximum = 0.0135 (at node 11)
Accepted packet rate average = 0.00971875
	minimum = 0 (at node 0)
	maximum = 0.1555 (at node 12)
Injected flit rate average = 0.00975
	minimum = 0.007 (at node 5)
	maximum = 0.0135 (at node 11)
Accepted flit rate average= 0.00971875
	minimum = 0 (at node 0)
	maximum = 0.1555 (at node 12)
Injected packet length average = 1
Accepted packet length average = 1
Total in-flight flits = 2 (2 measured)
latency change    = 0.00383113
throughput change = 0.0203644
Class 0:
Packet latency average = 23.1893
	minimum = 7
	maximum = 41
Network latency average = 23.1893
	minimum = 7
	maximum = 41
Slowest packet = 32878
Flit latency average = 23.2128
	minimum = 7
	maximum = 41
Slowest flit = 32878
Fragmentation average = 0
	minimum = 0
	maximum = 0
Injected packet rate average = 0.00945
	minimum = 0.0064 (at node 13)
	maximum = 0.0128 (at node 11)
Accepted packet rate average = 0.0094
	minimum = 0 (at node 0)
	maximum = 0.1504 (at node 12)
Injected flit rate average = 0.00945
	minimum = 0.0064 (at node 13)
	maximum = 0.0128 (at node 11)
Accepted flit rate average= 0.0094
	minimum = 0 (at node 0)
	maximum = 0.1504 (at node 12)
Injected packet length average = 1
Accepted packet length average = 1
Total in-flight flits = 3 (3 measured)
latency change    = 0.000738196
throughput change = 0.0339096
Class 0:
Packet latency average = 23.0374
	minimum = 7
	maximum = 48
Network latency average = 23.0374
	minimum = 7
	maximum = 48
Slowest packet = 33143
Flit latency average = 23.0571
	minimum = 7
	maximum = 48
Slowest flit = 33143
Fragmentation average = 0
	minimum = 0
	maximum = 0
Injected packet rate average = 0.00954167
	minimum = 0.00633333 (at node 6)
	maximum = 0.0123333 (at node 10)
Accepted packet rate average = 0.00947917
	minimum = 0 (at node 0)
	maximum = 0.151667 (at node 12)
Injected flit rate average = 0.00954167
	minimum = 0.00633333 (at node 6)
	maximum = 0.0123333 (at node 10)
Accepted flit rate average= 0.00947917
	minimum = 0 (at node 0)
	maximum = 0.151667 (at node 12)
Injected packet length average = 1
Accepted packet length average = 1
Total in-flight flits = 4 (4 measured)
latency change    = 0.00659311
throughput change = 0.00835165
Draining all recorded packets ...
Draining remaining packets ...
Time taken is 4548 cycles
====== Overall Traffic Statistics ======
====== Traffic class 0 ======
Packet latency average = 22.8065 (50 samples)
	minimum = 7 (50 samples)
	maximum = 49.2 (50 samples)
Network latency average = 22.8065 (50 samples)
	minimum = 7 (50 samples)
	maximum = 49.2 (50 samples)
Flit latency average = 22.8399 (50 samples)
	minimum = 7 (50 samples)
	maximum = 49.24 (50 samples)
Fragmentation average = 0 (50 samples)
	minimum = 0 (50 samples)
	maximum = 0 (50 samples)
Injected packet rate average = 0.00995284 (50 samples)
	minimum = 0.00644686 (50 samples)
	maximum = 0.0136545 (50 samples)
Accepted packet rate average = 0.00994571 (50 samples)
	minimum = 0 (50 samples)
	maximum = 0.159131 (50 samples)
Injected flit rate average = 0.00995284 (50 samples)
	minimum = 0.00644686 (50 samples)
	maximum = 0.0136545 (50 samples)
Accepted flit rate average = 0.00994571 (50 samples)
	minimum = 0 (50 samples)
	maximum = 0.159131 (50 samples)
Injected packet size average = 1 (50 samples)
Accepted packet size average = 1 (50 samples)
Hops average = 3.98407 (50 samples)
Total run time 1.193
