BEGIN Configuration File: /tmp/tmp762ub2g8.cfg
topology = mesh;
k = 4;
n = 2;
routing_function = planar_adapt;
num_vcs = 4;
vc_buf_size = 4;
wait_for_tail_credit = 1;
vc_allocator = islip;
sw_allocator = islip;
alloc_iters = 1;
credit_delay = 2;
routing_delay = 1;
vc_alloc_delay = 1;
sw_alloc_delay = 1;
input_speedup = 2;
output_speedup = 1;
internal_speedup = 1.0;
traffic = uniform;
packet_size = 1;
sim_type = latency;
injection_rate = 0.05;
warmup_periods = 3;
sample_period = 500;
sim_count = 50;
seed = 2;
link_failures = 7;
fail_seed = 202;

END Configuration File: /tmp/tmp762ub2g8.cfg
failure at node 4, channel 2 (1/7)
failure at node 13, channel 0 (2/7)
failure at node 6, channel 1 (3/7)
failure at node 11, channel 3 (4/7)
failure at node 9, channel 2 (5/7)
failure at node 15, channel 3 (6/7)
failure at node 4, channel 3 (7/7)
Class 0:
Packet latency average = 26.4718
	minimum = 7
	maximum = 86
Network latency average = 26.4718
	minimum = 7
	maximum = 86
Slowest packet = 228
Flit latency average = 26.4718
	minimum = 7
	maximum = 86
Slowest flit = 228
Fragmentation average = 0
	minimum = 0
	maximum = 0
Injected packet rate average = 0.048875
	minimum = 0.03 (at node 5)
	maximum = 0.068 (at node 10)
Accepted packet rate average = 0.046625
	minimum = 0.026 (at node 1)
	maximum = 0.064 (at node 9)
Injected flit rate average = 0.048875
	minimum = 0.03 (at node 5)
	maximum = 0.068 (at node 10)
Accepted flit rate average= 0.046625
	minimum = 0.026 (at node 1)
	maximum = 0.064 (at node 9)
Injected packet length average = 1
Accepted packet length average = 1
Total in-flight flits = 18 (0 measured)
latency change    = 1
throughput change = 1
Class 0:
Packet latency average = 26.8521
	minimum = 7
	maximum = 107
Network latency average = 26.8521
	minimum = 7
	maximum = 107
Slowest packet = 489
Flit latency average = 26.8521
	minimum = 7
	maximum = 107
Slowest flit = 489
Fragmentation average = 0
	minimum = 0
	maximum = 0
Injected packet rate average = 0.0496875
	minimum = 0.035 (at node 8)
	maximum = 0.064 (at node 10)
Accepted packet rate average = 0.04775
	minimum = 0.035 (at node 2)
	maximum = 0.06 (at node 13)
Injected flit rate average = 0.0496875
	minimum = 0.035 (at node 8)
	maximum = 0.064 (at node 10)
Accepted flit rate average= 0.04775
	minimum = 0.035 (at node 2)
	maximum = 0.06 (at node 13)
Injected packet length average = 1
Accepted packet length average = 1
Total in-flight flits = 32 (0 measured)
latency change    = 0.0141607
throughput change = 0.0235602
Class 0:
Packet latency average = 25.9178
	minimum = 7
	maximum = 95
Network latency average = 25.9151
	minimum = 7
	maximum = 95
Slowest packet = 1013
Flit latency average = 25.9151
	minimum = 7
	maximum = 95
Slowest flit = 1013
Fragmentation average = 0
	minimum = 0
	maximum = 0
Injected packet rate average = 0.044875
	minimum = 0.026 (at node 1)
	maximum = 0.06 (at node 10)
Accepted packet rate average = 0.047125
	minimum = 0.03 (at node 7)
	maximum = 0.066 (at node 0)
Injected flit rate average = 0.044875
	minimum = 0.026 (at node 1)
	maximum = 0.06 (at node 10)
Accepted flit rate average= 0.047125
	minimum = 0.03 (at node 7)
	maximum = 0.066 (at node 0)
Injected packet length average = 1
Accepted packet length average = 1
Total in-flight flits = 13 (0 measured)
latency change    = 0.0360495
throughput change = 0.0132626
Warmed up ...Time used is 1500 cycles
Class 0:
Packet latency average = 26.9181
	minimum = 7
	maximum = 102
Network latency average = 26.9181
	minimum = 7
	maximum = 102
Slowest packet = 1277
Flit latency average = 26.8388
	minimum = 7
	maximum = 102
Slowest flit = 1277
Fragmentation average = 0
	minimum = 0
	maximum = 0
Injected packet rate average = 0.05375
	minimum = 0.038 (at node 15)
	maximum = 0.08 (at node 10)
Accepted packet rate average = 0.0535
	minimum = 0.034 (at node 0)
	maximum = 0.068 (at node 14)
Injected flit rate average = 0.05375
	minimum = 0.038 (at node 15)
	maximum = 0.08 (at node 10)
Accepted flit rate average= 0.0535
	minimum = 0.034 (at node 0)
	maximum = 0.068 (at node 14)
Injected packet length average = 1
Accepted packet length average = 1
Total in-flight flits = 15 (15 measured)
latency change    = 0.0371609
throughput change = 0.119159
Class 0:
Packet latency average = 25.8178
	minimum = 7
	maximum = 102
Network latency average = 25.8178
	minimum = 7
	maximum = 102
Slowest packet = 1277
Flit latency average = 25.7932
	minimum = 7
	maximum = 102
Slowest flit = 1277
Fragmentation average = 0
	minimum = 0
	maximum = 0
Injected packet rate average = 0.050125
	minimum = 0.032 (at node 15)
	maximum = 0.07 (at node 10)
Accepted packet rate average = 0.049875
	minimum = 0.037 (at node 3)
	maximum = 0.059 (at node 8)
Injected flit rate average = 0.050125
	minimum = 0.032 (at node 15)
	maximum = 0.07 (at node 10)
Accepted flit rate average= 0.049875
	minimum = 0.037 (at node 3)
	maximum = 0.059 (at node 8)
Injected packet length average = 1
Accepted packet length average = 1
Total in-flight flits = 17 (17 measured)
latency change    = 0.0426154
throughput change = 0.0726817
Class 0:
Packet latency average = 25.5223
	minimum = 7
	maximum = 102
Network latency average = 25.5223
	minimum = 7
	maximum = 102
Slowest packet = 1277
Flit latency average = 25.5089
	minimum = 7
	maximum = 102
Slowest flit = 1277
Fragmentation average = 0
	minimum = 0
	maximum = 0
Injected packet rate average = 0.049625
	minimum = 0.0393333 (at node 15)
	maximum = 0.066 (at node 10)
Accepted packet rate average = 0.049125
	minimum = 0.04 (at node 12)
	maximum = 0.0573333 (at node 6)
Injected flit rate average = 0.049625
	minimum = 0.0393333 (at node 15)
	maximum = 0.066 (at node 10)
Accepted flit rate average= 0.049125
	minimum = 0.04 (at node 12)
	maximum = 0.0573333 (at node 6)
Injected packet length average = 1
Accepted packet length average = 1
Total in-flight flits = 25 (25 measured)
latency change    = 0.0115795
throughput change = 0.0152672
Class 0:
Packet latency average = 25.887
	minimum = 7
	maximum = 102
Network latency average = 25.8807
	minimum = 7
	maximum = 102
Slowest packet = 1277
Flit latency average = 25.868
	minimum = 7
	maximum = 102
Slowest flit = 1277
Fragmentation average = 0
	minimum = 0
	maximum = 0
Injected packet rate average = 0.0506562
	minimum = 0.0415 (at node 15)
	maximum = 0.069 (at node 10)
Accepted packet rate average = 0.0501875
	minimum = 0.043 (at node 0)
	maximum = 0.058 (at node 6)
Injected flit rate average = 0.0506562
	minimum = 0.0415 (at node 15)
	maximum = 0.069 (at node 10)
Accepted flit rate average= 0.0501875
	minimum = 0.043 (at node 0)
	maximum = 0.058 (at node 6)
Injected packet length average = 1
Accepted packet length average = 1
Total in-flight flits = 28 (28 measured)
latency change    = 0.0140884
throughput change = 0.0211706
Class 0:
Packet latency average = 26.318
	minimum = 7
	maximum = 121
Network latency average = 26.3116
	minimum = 7
	maximum = 121
Slowest packet = 2732
Flit latency average = 26.2989
	minimum = 7
	maximum = 121
Slowest flit = 2732
Fragmentation average = 0
	minimum = 0
	maximum = 0
Injected packet rate average = 0.051225
	minimum = 0.0408 (at node 1)
	maximum = 0.0644 (at node 10)
Accepted packet rate average = 0.051025
	minimum = 0.0436 (at node 3)
	maximum = 0.0568 (at node 6)
Injected flit rate average = 0.051225
	minimum = 0.0408 (at node 1)
	maximum = 0.0644 (at node 10)
Accepted flit rate average= 0.051025
	minimum = 0.0436 (at node 3)
	maximum = 0.0568 (at node 6)
Injected packet length average = 1
Accepted packet length average = 1
Total in-flight flits = 21 (21 measured)
latency change    = 0.0163782
throughput change = 0.0164135
Draining all recorded packets ...
Draining remaining packets ...
Time taken is 4103 cycles
Class 0:
Packet latency average = 25.522
	minimum = 7
	maximum = 82
Network latency average = 25.522
	minimum = 7
	maximum = 82
Slowest packet = 3408
Flit latency average = 25.522
	minimum = 7
	maximum = 82
Slowest flit = 3408
Fragmentation average = 0
	minimum = 0
	maximum = 0
Injected packet rate average = 0.050375
	minimum = 0.04 (at node 4)
	maximum = 0.064 (at node 13)
Accepted packet rate average = 0.048375
	minimum = 0.03 (at node 11)
	maximum = 0.062 (at node 0)
Injected flit rate average = 0.050375
	minimum = 0.04 (at node 4)
	maximum = 0.064 (at node 13)
Accepted flit rate average= 0.048375
	minimum = 0.03 (at node 11)
	maximum = 0.062 (at node 0)
Injected packet length average = 1
Accepted packet length average = 1
Total in-flight flits = 16 (0 measured)
latency change    = 1
throughput change = 1
Class 0:
Packet latency average = 27.7543
	minimum = 7
	maximum = 132
Network latency average = 27.7481
	minimum = 7
	maximum = 132
Slowest packet = 3729
Flit latency average = 27.7481
	minimum = 7
	maximum = 132
Slowest flit = 3729
Fragmentation average = 0
	minimum = 0
	maximum = 0
Injected packet rate average = 0.052
	minimum = 0.044 (at node 4)
	maximum = 0.065 (at node 8)
Accepted packet rate average = 0.050375
	minimum = 0.041 (at node 8)
	maximum = 0.062 (at node 6)
Injected flit rate average = 0.052
	minimum = 0.044 (at node 4)
	maximum = 0.065 (at node 8)
Accepted flit rate average= 0.050375
	minimum = 0.041 (at node 8)
	maximum = 0.062 (at node 6)
Injected packet length average = 1
Accepted packet length average = 1
Total in-flight flits = 26 (0 measured)
latency change    = 0.0804335
throughput change = 0.0397022
Class 0:
Packet latency average = 26.8073
	minimum = 7
	maximum = 100
Network latency average = 26.8073
	minimum = 7
	maximum = 100
Slowest packet = 4192
Flit latency average = 26.8073
	minimum = 7
	maximum = 100
Slowest flit = 4192
Fragmentation average = 0
	minimum = 0
	maximum = 0
Injected packet rate average = 0.053625
	minimum = 0.03 (at node 11)
	maximum = 0.072 (at node 7)
Accepted packet rate average = 0.055125
	minimum = 0.038 (at node 6)
	maximum = 0.078 (at node 10)
Injected flit rate average = 0.053625
	minimum = 0.03 (at node 11)
	maximum = 0.072 (at node 7)
Accepted flit rate average= 0.055125
	minimum = 0.038 (at node 6)
	maximum = 0.078 (at node 10)
Injected packet length average = 1
Accepted packet length average = 1
Total in-flight flits = 14 (0 measured)
latency change    = 0.0353295
throughput change = 0.0861678
Warmed up ...Time used is 1500 cycles
Class 0:
Packet latency average = 25.3989
	minimum = 7
	maximum = 86
Network latency average = 25.3989
	minimum = 7
	maximum = 86
Slowest packet = 4557
Flit latency average = 25.6805
	minimum = 7
	maximum = 86
Slowest flit = 4557
Fragmentation average = 0
	minimum = 0
	maximum = 0
Injected packet rate average = 0.049125
	minimum = 0.036 (at node 15)
	maximum = 0.068 (at node 13)
Accepted packet rate average = 0.048125
	minimum = 0.036 (at node 3)
	maximum = 0.06 (at node 0)
Injected flit rate average = 0.049125
	minimum = 0.036 (at node 15)
	maximum = 0.068 (at node 13)
Accepted flit rate average= 0.048125
	minimum = 0.036 (at node 3)
	maximum = 0.06 (at node 0)
Injected packet length average = 1
Accepted packet length average = 1
Total in-flight flits = 22 (22 measured)
latency change    = 0.0554486
throughput change = 0.145455
Class 0:
Packet latency average = 28.1305
	minimum = 7
	maximum = 185
Network latency average = 28.1103
	minimum = 7
	maximum = 185
Slowest packet = 5128
Flit latency average = 28.198
	minimum = 7
	maximum = 185
Slowest flit = 5128
Fragmentation average = 0
	minimum = 0
	maximum = 0
Injected packet rate average = 0.0505
	minimum = 0.044 (at node 12)
	maximum = 0.062 (at node 5)
Accepted packet rate average = 0.0501875
	minimum = 0.037 (at node 8)
	maximum = 0.064 (at node 10)
Injected flit rate average = 0.0505
	minimum = 0.044 (at node 12)
	maximum = 0.062 (at node 5)
Accepted flit rate average= 0.0501875
	minimum = 0.037 (at node 8)
	maximum = 0.064 (at node 10)
Injected packet length average = 1
Accepted packet length average = 1
Total in-flight flits = 19 (19 measured)
latency change    = 0.0971052
throughput change = 0.0410959
Class 0:
Packet latency average = 27.5582
	minimum = 7
	maximum = 185
Network latency average = 27.5446
	minimum = 7
	maximum = 185
Slowest packet = 5128
Flit latency average = 27.6104
	minimum = 7
	maximum = 185
Slowest flit = 5128
Fragmentation average = 0
	minimum = 0
	maximum = 0
Injected packet rate average = 0.0499583
	minimum = 0.0446667 (at node 11)
	maximum = 0.056 (at node 3)
Accepted packet rate average = 0.049625
	minimum = 0.038 (at node 8)
	maximum = 0.06 (at node 10)
Injected flit rate average = 0.0499583
	minimum = 0.0446667 (at node 11)
	maximum = 0.056 (at node 3)
Accepted flit rate average= 0.049625
	minimum = 0.038 (at node 8)
	maximum = 0.06 (at node 10)
Injected packet length average = 1
Accepted packet length average = 1
Total in-flight flits = 22 (22 measured)
latency change    = 0.0207686
throughput change = 0.011335
Class 0:
Packet latency average = 27.4521
	minimum = 7
	maximum = 185
Network latency average = 27.44
	minimum = 7
	maximum = 185
Slowest packet = 5128
Flit latency average = 27.4902
	minimum = 7
	maximum = 185
Slowest flit = 5128
Fragmentation average = 0
	minimum = 0
	maximum = 0
Injected packet rate average = 0.0501562
	minimum = 0.044 (at node 11)
	maximum = 0.0605 (at node 5)
Accepted packet rate average = 0.0496562
	minimum = 0.038 (at node 1)
	maximum = 0.0595 (at node 10)
Injected flit rate average = 0.0501562
	minimum = 0.044 (at node 11)
	maximum = 0.0605 (at node 5)
Accepted flit rate average= 0.0496562
	minimum = 0.038 (at node 1)
	maximum = 0.0595 (at node 10)
Injected packet length average = 1
Accepted packet length average = 1
Total in-flight flits = 30 (30 measured)
latency change    = 0.00386621
throughput change = 0.000629327
Class 0:
Packet latency average = 27.3357
	minimum = 7
	maximum = 185
Network latency average = 27.3261
	minimum = 7
	maximum = 185
Slowest packet = 5128
Flit latency average = 27.3671
	minimum = 7
	maximum = 185
Slowest flit = 5128
Fragmentation average = 0
	minimum = 0
	maximum = 0
Injected packet rate average = 0.049725
	minimum = 0.044 (at node 9)
	maximum = 0.0552 (at node 5)
Accepted packet rate average = 0.04965
	minimum = 0.0392 (at node 1)
	maximum = 0.0576 (at node 10)
Injected flit rate average = 0.049725
	minimum = 0.044 (at node 9)
	maximum = 0.0552 (at node 5)
Accepted flit rate average= 0.04965
	minimum = 0.0392 (at node 1)
	maximum = 0.0576 (at node 10)
Injected packet length average = 1
Accepted packet length average = 1
Total in-flight flits = 17 (17 measured)
latency change    = 0.00425684
throughput change = 0.000125881
Draining all recorded packets ...
Draining remaining packets ...
Time taken is 4080 cycles
Class 0:
Packet latency average = 23.6277
	minimum = 7
	maximum = 73
Network latency average = 23.6277
	minimum = 7
	maximum = 73
Slowest packet = 6616
Flit latency average = 23.6277
	minimum = 7
	maximum = 73
Slowest flit = 6616
Fragmentation average = 0
	minimum = 0
	maximum = 0
Injected packet rate average = 0.04975
	minimum = 0.038 (at node 11)
	maximum = 0.068 (at node 15)
Accepted packet rate average = 0.046
	minimum = 0.028 (at node 13)
	maximum = 0.07 (at node 14)
Injected flit rate average = 0.04975
	minimum = 0.038 (at node 11)
	maximum = 0.068 (at node 15)
Accepted flit rate average= 0.046
	minimum = 0.028 (at node 13)
	maximum = 0.07 (at node 14)
Injected packet length average = 1
Accepted packet length average = 1
Total in-flight flits = 30 (0 measured)
latency change    = 1
throughput change = 1
Class 0:
Packet latency average = 24.619
	minimum = 7
	maximum = 87
Network latency average = 24.619
	minimum = 7
	maximum = 87
Slowest packet = 7080
Flit latency average = 24.619
	minimum = 7
	maximum = 87
Slowest flit = 7080
Fragmentation average = 0
	minimum = 0
	maximum = 0
Injected packet rate average = 0.0500625
	minimum = 0.039 (at node 9)
	maximum = 0.065 (at node 15)
Accepted packet rate average = 0.0485625
	minimum = 0.04 (at node 1)
	maximum = 0.064 (at node 14)
Injected flit rate average = 0.0500625
	minimum = 0.039 (at node 9)
	maximum = 0.065 (at node 15)
Accepted flit rate average= 0.0485625
	minimum = 0.04 (at node 1)
	maximum = 0.064 (at node 14)
Injected packet length average = 1
Accepted packet length average = 1
Total in-flight flits = 24 (0 measured)
latency change    = 0.0402668
throughput change = 0.0527671
Class 0:
Packet latency average = 26.122
	minimum = 7
	maximum = 155
Network latency average = 26.122
	minimum = 7
	maximum = 155
Slowest packet = 7256
Flit latency average = 26.122
	minimum = 7
	maximum = 155
Slowest flit = 7256
Fragmentation average = 0
	minimum = 0
	maximum = 0
Injected packet rate average = 0.050375
	minimum = 0.038 (at node 4)
	maximum = 0.064 (at node 8)
Accepted packet rate average = 0.05125
	minimum = 0.032 (at node 14)
	maximum = 0.066 (at node 2)
Injected flit rate average = 0.050375
	minimum = 0.038 (at node 4)
	maximum = 0.064 (at node 8)
Accepted flit rate average= 0.05125
	minimum = 0.032 (at node 14)
	maximum = 0.066 (at node 2)
Injected packet length average = 1
Accepted packet length average = 1
Total in-flight flits = 17 (0 measured)
latency change    = 0.0575341
throughput change = 0.052439
Warmed up ...Time used is 1500 cycles
Class 0:
Packet latency average = 22.7842
	minimum = 7
	maximum = 79
Network latency average = 22.7789
	minimum = 7
	maximum = 79
Slowest packet = 7833
Flit latency average = 22.8791
	minimum = 7
	maximum = 79
Slowest flit = 7833
Fragmentation average = 0
	minimum = 0
	maximum = 0
Injected packet rate average = 0.0495
	minimum = 0.038 (at node 2)
	maximum = 0.076 (at node 14)
Accepted packet rate average = 0.049625
	minimum = 0.036 (at node 11)
	maximum = 0.066 (at node 6)
Injected flit rate average = 0.0495
	minimum = 0.038 (at node 2)
	maximum = 0.076 (at node 14)
Accepted flit rate average= 0.049625
	minimum = 0.036 (at node 11)
	maximum = 0.066 (at node 6)
Injected packet length average = 1
Accepted packet length average = 1
Total in-flight flits = 16 (16 measured)
latency change    = 0.146494
throughput change = 0.0327456
Class 0:
Packet latency average = 24.879
	minimum = 7
	maximum = 119
Network latency average = 24.8765
	minimum = 7
	maximum = 119
Slowest packet = 8232
Flit latency average = 24.8815
	minimum = 7
	maximum = 119
Slowest flit = 8232
Fragmentation average = 0
	minimum = 0
	maximum = 0
Injected packet rate average = 0.052
	minimum = 0.036 (at node 5)
	maximum = 0.066 (at node 0)
Accepted packet rate average = 0.0516875
	minimum = 0.043 (at node 14)
	maximum = 0.063 (at node 8)
Injected flit rate average = 0.052
	minimum = 0.036 (at node 5)
	maximum = 0.066 (at node 0)
Accepted flit rate average= 0.0516875
	minimum = 0.043 (at node 14)
	maximum = 0.063 (at node 8)
Injected packet length average = 1
Accepted packet length average = 1
Total in-flight flits = 22 (22 measured)
latency change    = 0.0841996
throughput change = 0.0399033
Class 0:
Packet latency average = 25.6783
	minimum = 7
	maximum = 119
Network latency average = 25.6767
	minimum = 7
	maximum = 119
Slowest packet = 8232
Flit latency average = 25.6691
	minimum = 7
	maximum = 119
Slowest flit = 8232
Fragmentation average = 0
	minimum = 0
	maximum = 0
Injected packet rate average = 0.0519167
	minimum = 0.0406667 (at node 5)
	maximum = 0.0606667 (at node 6)
Accepted packet rate average = 0.051875
	minimum = 0.0446667 (at node 2)
	maximum = 0.058 (at node 15)
Injected flit rate average = 0.0519167
	minimum = 0.0406667 (at node 5)
	maximum = 0.0606667 (at node 6)
Accepted flit rate average= 0.051875
	minimum = 0.0446667 (at node 2)
	maximum = 0.058 (at node 15)
Injected packet length average = 1
Accepted packet length average = 1
Total in-flight flits = 18 (18 measured)
latency change    = 0.0311284
throughput change = 0.00361446
Class 0:
Packet latency average = 25.6184
	minimum = 7
	maximum = 119
Network latency average = 25.6171
	minimum = 7
	maximum = 119
Slowest packet = 8232
Flit latency average = 25.612
	minimum = 7
	maximum = 119
Slowest flit = 8232
Fragmentation average = 0
	minimum = 0
	maximum = 0
Injected packet rate average = 0.0512813
	minimum = 0.0425 (at node 5)
	maximum = 0.057 (at node 6)
Accepted packet rate average = 0.0512188
	minimum = 0.045 (at node 3)
	maximum = 0.06 (at node 15)
Injected flit rate average = 0.0512813
	minimum = 0.0425 (at node 5)
	maximum = 0.057 (at node 6)
Accepted flit rate average= 0.0512188
	minimum = 0.045 (at node 3)
	maximum = 0.06 (at node 15)
Injected packet length average = 1
Accepted packet length average = 1
Total in-flight flits = 19 (19 measured)
latency change    = 0.00234076
throughput change = 0.0128127
Class 0:
Packet latency average = 25.2556
	minimum = 7
	maximum = 119
Network latency average = 25.2546
	minimum = 7
	maximum = 119
Slowest packet = 8232
Flit latency average = 25.2534
	minimum = 7
	maximum = 119
Slowest flit = 8232
Fragmentation average = 0
	minimum = 0
	maximum = 0
Injected packet rate average = 0.0509
	minimum = 0.0448 (at node 5)
	maximum = 0.0576 (at node 14)
Accepted packet rate average = 0.0508
	minimum = 0.044 (at node 3)
	maximum = 0.056 (at node 15)
Injected flit rate average = 0.0509
	minimum = 0.0448 (at node 5)
	maximum = 0.0576 (at node 14)
Accepted flit rate average= 0.0508
	minimum = 0.044 (at node 3)
	maximum = 0.056 (at node 15)
Injected packet length average = 1
Accepted packet length average = 1
Total in-flight flits = 21 (21 measured)
latency change    = 0.0143647
throughput change = 0.00824311
Draining all recorded packets ...
Draining remaining packets ...
Time taken is 4096 cycles
Class 0:
Packet latency average = 22.7275
	minimum = 7
	maximum = 74
Network latency average = 22.7275
	minimum = 7
	maximum = 74
Slowest packet = 9999
Flit latency average = 22.7275
	minimum = 7
	maximum = 74
Slowest flit = 9999
Fragmentation average = 0
	minimum = 0
	maximum = 0
Injected packet rate average = 0.046875
	minimum = 0.032 (at node 1)
	maximum = 0.06 (at node 15)
Accepted packet rate average = 0.0445
	minimum = 0.028 (at node 0)
	maximum = 0.062 (at node 2)
Injected flit rate average = 0.046875
	minimum = 0.032 (at node 1)
	maximum = 0.06 (at node 15)
Accepted flit rate average= 0.0445
	minimum = 0.028 (at node 0)
	maximum = 0.062 (at node 2)
Injected packet length average = 1
Accepted packet length average = 1
Total in-flight flits = 19 (0 measured)
latency change    = 1
throughput change = 1
Class 0:
Packet latency average = 24.6086
	minimum = 7
	maximum = 106
Network latency average = 24.5777
	minimum = 7
	maximum = 106
Slowest packet = 10361
Flit latency average = 24.5777
	minimum = 7
	maximum = 106
Slowest flit = 10361
Fragmentation average = 0
	minimum = 0
	maximum = 0
Injected packet rate average = 0.0481875
	minimum = 0.037 (at node 1)
	maximum = 0.063 (at node 15)
Accepted packet rate average = 0.046625
	minimum = 0.028 (at node 0)
	maximum = 0.062 (at node 12)
Injected flit rate average = 0.0481875
	minimum = 0.037 (at node 1)
	maximum = 0.063 (at node 15)
Accepted flit rate average= 0.046625
	minimum = 0.028 (at node 0)
	maximum = 0.062 (at node 12)
Injected packet length average = 1
Accepted packet length average = 1
Total in-flight flits = 25 (0 measured)
latency change    = 0.0764388
throughput change = 0.0455764
Class 0:
Packet latency average = 25.2437
	minimum = 7
	maximum = 88
Network latency average = 25.2437
	minimum = 7
	maximum = 88
Slowest packet = 10641
Flit latency average = 25.2437
	minimum = 7
	maximum = 88
Slowest flit = 10641
Fragmentation average = 0
	minimum = 0
	maximum = 0
Injected packet rate average = 0.04875
	minimum = 0.036 (at node 5)
	maximum = 0.06 (at node 2)
Accepted packet rate average = 0.04925
	minimum = 0.036 (at node 13)
	maximum = 0.064 (at node 5)
Injected flit rate average = 0.04875
	minimum = 0.036 (at node 5)
	maximum = 0.06 (at node 2)
Accepted flit rate average= 0.04925
	minimum = 0.036 (at node 13)
	maximum = 0.064 (at node 5)
Injected packet length average = 1
Accepted packet length average = 1
Total in-flight flits = 21 (0 measured)
latency change    = 0.0251578
throughput change = 0.0532995
Warmed up ...Time used is 1500 cycles
Class 0:
Packet latency average = 26.8091
	minimum = 7
	maximum = 110
Network latency average = 26.8091
	minimum = 7
	maximum = 110
Slowest packet = 11135
Flit latency average = 27.1628
	minimum = 7
	maximum = 117
Slowest flit = 10913
Fragmentation average = 0
	minimum = 0
	maximum = 0
Injected packet rate average = 0.04925
	minimum = 0.032 (at node 2)
	maximum = 0.07 (at node 6)
Accepted packet rate average = 0.049125
	minimum = 0.03 (at node 7)
	maximum = 0.066 (at node 13)
Injected flit rate average = 0.04925
	minimum = 0.032 (at node 2)
	maximum = 0.07 (at node 6)
Accepted flit rate average= 0.049125
	minimum = 0.03 (at node 7)
	maximum = 0.066 (at node 13)
Injected packet length average = 1
Accepted packet length average = 1
Total in-flight flits = 22 (22 measured)
latency change    = 0.0583937
throughput change = 0.00254453
Class 0:
Packet latency average = 26.4416
	minimum = 7
	maximum = 110
Network latency average = 26.4416
	minimum = 7
	maximum = 110
Slowest packet = 11135
Flit latency average = 26.625
	minimum = 7
	maximum = 117
Slowest flit = 10913
Fragmentation average = 0
	minimum = 0
	maximum = 0
Injected packet rate average = 0.0498125
	minimum = 0.042 (at node 2)
	maximum = 0.06 (at node 11)
Accepted packet rate average = 0.05
	minimum = 0.04 (at node 7)
	maximum = 0.06 (at node 0)
Injected flit rate average = 0.0498125
	minimum = 0.042 (at node 2)
	maximum = 0.06 (at node 11)
Accepted flit rate average= 0.05
	minimum = 0.04 (at node 7)
	maximum = 0.06 (at node 0)
Injected packet length average = 1
Accepted packet length average = 1
Total in-flight flits = 18 (18 measured)
latency change    = 0.0139004
throughput change = 0.0175
Class 0:
Packet latency average = 26.7172
	minimum = 7
	maximum = 110
Network latency average = 26.7172
	minimum = 7
	maximum = 110
Slowest packet = 11135
Flit latency average = 26.8351
	minimum = 7
	maximum = 117
Slowest flit = 10913
Fragmentation average = 0
	minimum = 0
	maximum = 0
Injected packet rate average = 0.05
	minimum = 0.044 (at node 14)
	maximum = 0.0613333 (at node 11)
Accepted packet rate average = 0.0497917
	minimum = 0.042 (at node 7)
	maximum = 0.058 (at node 8)
Injected flit rate average = 0.05
	minimum = 0.044 (at node 14)
	maximum = 0.0613333 (at node 11)
Accepted flit rate average= 0.0497917
	minimum = 0.042 (at node 7)
	maximum = 0.058 (at node 8)
Injected packet length average = 1
Accepted packet length average = 1
Total in-flight flits = 26 (26 measured)
latency change    = 0.010316
throughput change = 0.0041841
Class 0:
Packet latency average = 26.5383
	minimum = 7
	maximum = 110
Network latency average = 26.5383
	minimum = 7
	maximum = 110
Slowest packet = 11135
Flit latency average = 26.6286
	minimum = 7
	maximum = 117
Slowest flit = 10913
Fragmentation average = 0
	minimum = 0
	maximum = 0
Injected packet rate average = 0.050125
	minimum = 0.044 (at node 13)
	maximum = 0.0555 (at node 11)
Accepted packet rate average = 0.0500625
	minimum = 0.0405 (at node 2)
	maximum = 0.0575 (at node 0)
Injected flit rate average = 0.050125
	minimum = 0.044 (at node 13)
	maximum = 0.0555 (at node 11)
Accepted flit rate average= 0.0500625
	minimum = 0.0405 (at node 2)
	maximum = 0.0575 (at node 0)
Injected packet length average = 1
Accepted packet length average = 1
Total in-flight flits = 23 (23 measured)
latency change    = 0.00674269
throughput change = 0.0054099
Draining all recorded packets ...
Draining remaining packets ...
Time taken is 3599 cycles
Class 0:
Packet latency average = 29.742
	minimum = 7
	maximum = 157
Network latency average = 29.6781
	minimum = 7
	maximum = 157
Slowest packet = 12907
Flit latency average = 29.6781
	minimum = 7
	maximum = 157
Slowest flit = 12907
Fragmentation average = 0
	minimum = 0
	maximum = 0
Injected packet rate average = 0.0535
	minimum = 0.038 (at node 13)
	maximum = 0.066 (at node 8)
Accepted packet rate average = 0.050875
	minimum = 0.04 (at node 2)
	maximum = 0.068 (at node 10)
Injected flit rate average = 0.0535
	minimum = 0.038 (at node 13)
	maximum = 0.066 (at node 8)
Accepted flit rate average= 0.050875
	minimum = 0.04 (at node 2)
	maximum = 0.068 (at node 10)
Injected packet length average = 1
Accepted packet length average = 1
Total in-flight flits = 21 (0 measured)
latency change    = 1
throughput change = 1
Class 0:
Packet latency average = 26.9235
	minimum = 7
	maximum = 157
Network latency average = 26.8914
	minimum = 7
	maximum = 157
Slowest packet = 12907
Flit latency average = 26.8914
	minimum = 7
	maximum = 157
Slowest flit = 12907
Fragmentation average = 0
	minimum = 0
	maximum = 0
Injected packet rate average = 0.051375
	minimum = 0.041 (at node 1)
	maximum = 0.067 (at node 8)
Accepted packet rate average = 0.050625
	minimum = 0.041 (at node 15)
	maximum = 0.061 (at node 1)
Injected flit rate average = 0.051375
	minimum = 0.041 (at node 1)
	maximum = 0.067 (at node 8)
Accepted flit rate average= 0.050625
	minimum = 0.041 (at node 15)
	maximum = 0.061 (at node 1)
Injected packet length average = 1
Accepted packet length average = 1
Total in-flight flits = 12 (0 measured)
latency change    = 0.104688
throughput change = 0.00493827
Class 0:
Packet latency average = 24.7549
	minimum = 7
	maximum = 84
Network latency average = 24.7493
	minimum = 7
	maximum = 84
Slowest packet = 13456
Flit latency average = 24.7493
	minimum = 7
	maximum = 84
Slowest flit = 13456
Fragmentation average = 0
	minimum = 0
	maximum = 0
Injected packet rate average = 0.045875
	minimum = 0.03 (at node 5)
	maximum = 0.07 (at node 8)
Accepted packet rate average = 0.044875
	minimum = 0.032 (at node 5)
	maximum = 0.058 (at node 0)
Injected flit rate average = 0.045875
	minimum = 0.03 (at node 5)
	maximum = 0.07 (at node 8)
Accepted flit rate average= 0.044875
	minimum = 0.032 (at node 5)
	maximum = 0.058 (at node 0)
Injected packet length average = 1
Accepted packet length average = 1
Total in-flight flits = 20 (0 measured)
latency change    = 0.0876022
throughput change = 0.128134
Warmed up ...Time used is 1500 cycles
Class 0:
Packet latency average = 25.4412
	minimum = 7
	maximum = 100
Network latency average = 25.4412
	minimum = 7
	maximum = 100
Slowest packet = 14119
Flit latency average = 25.4898
	minimum = 7
	maximum = 100
Slowest flit = 14119
Fragmentation average = 0
	minimum = 0
	maximum = 0
Injected packet rate average = 0.051625
	minimum = 0.034 (at node 3)
	maximum = 0.072 (at node 6)
Accepted packet rate average = 0.04925
	minimum = 0.036 (at node 0)
	maximum = 0.058 (at node 2)
Injected flit rate average = 0.051625
	minimum = 0.034 (at node 3)
	maximum = 0.072 (at node 6)
Accepted flit rate average= 0.04925
	minimum = 0.036 (at node 0)
	maximum = 0.058 (at node 2)
Injected packet length average = 1
Accepted packet length average = 1
Total in-flight flits = 39 (39 measured)
latency change    = 0.026976
throughput change = 0.0888325
Class 0:
Packet latency average = 29.1744
	minimum = 7
	maximum = 165
Network latency average = 29.1744
	minimum = 7
	maximum = 165
Slowest packet = 14509
Flit latency average = 29.1083
	minimum = 7
	maximum = 165
Slowest flit = 14509
Fragmentation average = 0
	minimum = 0
	maximum = 0
Injected packet rate average = 0.05275
	minimum = 0.04 (at node 1)
	maximum = 0.062 (at node 4)
Accepted packet rate average = 0.0525
	minimum = 0.044 (at node 7)
	maximum = 0.066 (at node 13)
Injected flit rate average = 0.05275
	minimum = 0.04 (at node 1)
	maximum = 0.062 (at node 4)
Accepted flit rate average= 0.0525
	minimum = 0.044 (at node 7)
	maximum = 0.066 (at node 13)
Injected packet length average = 1
Accepted packet length average = 1
Total in-flight flits = 24 (24 measured)
latency change    = 0.127962
throughput change = 0.0619048
Class 0:
Packet latency average = 27.8378
	minimum = 7
	maximum = 165
Network latency average = 27.8378
	minimum = 7
	maximum = 165
Slowest packet = 14509
Flit latency average = 27.814
	minimum = 7
	maximum = 165
Slowest flit = 14509
Fragmentation average = 0
	minimum = 0
	maximum = 0
Injected packet rate average = 0.0504167
	minimum = 0.0406667 (at node 3)
	maximum = 0.0566667 (at node 5)
Accepted packet rate average = 0.0504167
	minimum = 0.0413333 (at node 10)
	maximum = 0.0586667 (at node 13)
Injected flit rate average = 0.0504167
	minimum = 0.0406667 (at node 3)
	maximum = 0.0566667 (at node 5)
Accepted flit rate average= 0.0504167
	minimum = 0.0413333 (at node 10)
	maximum = 0.0586667 (at node 13)
Injected packet length average = 1
Accepted packet length average = 1
Total in-flight flits = 20 (20 measured)
latency change    = 0.0480129
throughput change = 0.0413223
Class 0:
Packet latency average = 27.4274
	minimum = 7
	maximum = 165
Network latency average = 27.4274
	minimum = 7
	maximum = 165
Slowest packet = 14509
Flit latency average = 27.4146
	minimum = 7
	maximum = 165
Slowest flit = 14509
Fragmentation average = 0
	minimum = 0
	maximum = 0
Injected packet rate average = 0.0501562
	minimum = 0.0395 (at node 3)
	maximum = 0.054 (at node 15)
Accepted packet rate average = 0.050125
	minimum = 0.039 (at node 0)
	maximum = 0.0625 (at node 13)
Injected flit rate average = 0.0501562
	minimum = 0.0395 (at node 3)
	maximum = 0.054 (at node 15)
Accepted flit rate average= 0.050125
	minimum = 0.039 (at node 0)
	maximum = 0.0625 (at node 13)
Injected packet length average = 1
Accepted packet length average = 1
Total in-flight flits = 21 (21 measured)
latency change    = 0.0149637
throughput change = 0.00581879
Class 0:
Packet latency average = 26.8978
	minimum = 7
	maximum = 165
Network latency average = 26.8978
	minimum = 7
	maximum = 165
Slowest packet = 14509
Flit latency average = 26.8928
	minimum = 7
	maximum = 165
Slowest flit = 14509
Fragmentation average = 0
	minimum = 0
	maximum = 0
Injected packet rate average = 0.049575
	minimum = 0.042 (at node 3)
	maximum = 0.0544 (at node 12)
Accepted packet rate average = 0.049675
	minimum = 0.0412 (at node 0)
	maximum = 0.0612 (at node 13)
Injected flit rate average = 0.049575
	minimum = 0.042 (at node 3)
	maximum = 0.0544 (at node 12)
Accepted flit rate average= 0.049675
	minimum = 0.0412 (at node 0)
	maximum = 0.0612 (at node 13)
Injected packet length average = 1
Accepted packet length average = 1
Total in-flight flits = 16 (16 measured)
latency change    = 0.0196888
throughput change = 0.00905888
Draining all recorded packets ...
Draining remaining packets ...
Time taken is 4072 cycles
Class 0:
Packet latency average = 28.6616
	minimum = 7
	maximum = 138
Network latency average = 28.1212
	minimum = 7
	maximum = 138
Slowest packet = 16106
Flit latency average = 28.1212
	minimum = 7
	maximum = 138
Slowest flit = 16106
Fragmentation average = 0
	minimum = 0
	maximum = 0
Injected packet rate average = 0.05225
	minimum = 0.036 (at node 15)
	maximum = 0.07 (at node 10)
Accepted packet rate average = 0.0495
	minimum = 0.034 (at node 7)
	maximum = 0.09 (at node 6)
Injected flit rate average = 0.05225
	minimum = 0.036 (at node 15)
	maximum = 0.07 (at node 10)
Accepted flit rate average= 0.0495
	minimum = 0.034 (at node 7)
	maximum = 0.09 (at node 6)
Injected packet length average = 1
Accepted packet length average = 1
Total in-flight flits = 22 (0 measured)
latency change    = 1
throughput change = 1
Class 0:
Packet latency average = 27.4312
	minimum = 7
	maximum = 138
Network latency average = 27.0038
	minimum = 7
	maximum = 138
Slowest packet = 16106
Flit latency average = 27.0038
	minimum = 7
	maximum = 138
Slowest flit = 16106
Fragmentation average = 0
	minimum = 0
	maximum = 0
Injected packet rate average = 0.0509375
	minimum = 0.04 (at node 3)
	maximum = 0.067 (at node 10)
Accepted packet rate average = 0.05
	minimum = 0.032 (at node 0)
	maximum = 0.066 (at node 6)
Injected flit rate average = 0.0509375
	minimum = 0.04 (at node 3)
	maximum = 0.067 (at node 10)
Accepted flit rate average= 0.05
	minimum = 0.032 (at node 0)
	maximum = 0.066 (at node 6)
Injected packet length average = 1
Accepted packet length average = 1
Total in-flight flits = 15 (0 measured)
latency change    = 0.0448527
throughput change = 0.01
Class 0:
Packet latency average = 27.5593
	minimum = 7
	maximum = 86
Network latency average = 27.5593
	minimum = 7
	maximum = 86
Slowest packet = 16882
Flit latency average = 27.5593
	minimum = 7
	maximum = 86
Slowest flit = 16882
Fragmentation average = 0
	minimum = 0
	maximum = 0
Injected packet rate average = 0.048375
	minimum = 0.022 (at node 10)
	maximum = 0.082 (at node 3)
Accepted packet rate average = 0.0485
	minimum = 0.03 (at node 11)
	maximum = 0.07 (at node 15)
Injected flit rate average = 0.048375
	minimum = 0.022 (at node 10)
	maximum = 0.082 (at node 3)
Accepted flit rate average= 0.0485
	minimum = 0.03 (at node 11)
	maximum = 0.07 (at node 15)
Injected packet length average = 1
Accepted packet length average = 1
Total in-flight flits = 14 (0 measured)
latency change    = 0.00464556
throughput change = 0.0309278
Warmed up ...Time used is 1500 cycles
Class 0:
Packet latency average = 23.794
	minimum = 7
	maximum = 80
Network latency average = 23.794
	minimum = 7
	maximum = 80
Slowest packet = 17354
Flit latency average = 23.9582
	minimum = 7
	maximum = 80
Slowest flit = 17354
Fragmentation average = 0
	minimum = 0
	maximum = 0
Injected packet rate average = 0.048125
	minimum = 0.03 (at node 5)
	maximum = 0.074 (at node 2)
Accepted packet rate average = 0.047875
	minimum = 0.03 (at node 1)
	maximum = 0.08 (at node 14)
Injected flit rate average = 0.048125
	minimum = 0.03 (at node 5)
	maximum = 0.074 (at node 2)
Accepted flit rate average= 0.047875
	minimum = 0.03 (at node 1)
	maximum = 0.08 (at node 14)
Injected packet length average = 1
Accepted packet length average = 1
Total in-flight flits = 16 (16 measured)
latency change    = 0.158243
throughput change = 0.0130548
Class 0:
Packet latency average = 24.5416
	minimum = 7
	maximum = 98
Network latency average = 24.5416
	minimum = 7
	maximum = 98
Slowest packet = 17622
Flit latency average = 24.6075
	minimum = 7
	maximum = 98
Slowest flit = 17622
Fragmentation average = 0
	minimum = 0
	maximum = 0
Injected packet rate average = 0.05
	minimum = 0.04 (at node 9)
	maximum = 0.064 (at node 2)
Accepted packet rate average = 0.0496875
	minimum = 0.032 (at node 6)
	maximum = 0.075 (at node 14)
Injected flit rate average = 0.05
	minimum = 0.04 (at node 9)
	maximum = 0.064 (at node 2)
Accepted flit rate average= 0.0496875
	minimum = 0.032 (at node 6)
	maximum = 0.075 (at node 14)
Injected packet length average = 1
Accepted packet length average = 1
Total in-flight flits = 19 (19 measured)
latency change    = 0.0304615
throughput change = 0.036478
Class 0:
Packet latency average = 25.3013
	minimum = 7
	maximum = 124
Network latency average = 25.3013
	minimum = 7
	maximum = 124
Slowest packet = 17793
Flit latency average = 25.3364
	minimum = 7
	maximum = 124
Slowest flit = 17793
Fragmentation average = 0
	minimum = 0
	maximum = 0
Injected packet rate average = 0.04975
	minimum = 0.042 (at node 9)
	maximum = 0.0586667 (at node 13)
Accepted packet rate average = 0.0495417
	minimum = 0.0346667 (at node 6)
	maximum = 0.0673333 (at node 14)
Injected flit rate average = 0.04975
	minimum = 0.042 (at node 9)
	maximum = 0.0586667 (at node 13)
Accepted flit rate average= 0.0495417
	minimum = 0.0346667 (at node 6)
	maximum = 0.0673333 (at node 14)
Injected packet length average = 1
Accepted packet length average = 1
Total in-flight flits = 19 (19 measured)
latency change    = 0.0300247
throughput change = 0.00294365
Class 0:
Packet latency average = 26.2963
	minimum = 7
	maximum = 161
Network latency average = 26.2963
	minimum = 7
	maximum = 161
Slowest packet = 18422
Flit latency average = 26.3138
	minimum = 7
	maximum = 161
Slowest flit = 18422
Fragmentation average = 0
	minimum = 0
	maximum = 0
Injected packet rate average = 0.0503125
	minimum = 0.043 (at node 9)
	maximum = 0.0625 (at node 13)
Accepted packet rate average = 0.0496875
	minimum = 0.0385 (at node 6)
	maximum = 0.061 (at node 0)
Injected flit rate average = 0.0503125
	minimum = 0.043 (at node 9)
	maximum = 0.0625 (at node 13)
Accepted flit rate average= 0.0496875
	minimum = 0.0385 (at node 6)
	maximum = 0.061 (at node 0)
Injected packet length average = 1
Accepted packet length average = 1
Total in-flight flits = 34 (34 measured)
latency change    = 0.0378396
throughput change = 0.00293501
Draining all recorded packets ...
Draining remaining packets ...
Time taken is 3647 cycles
Class 0:
Packet latency average = 22.8895
	minimum = 7
	maximum = 79
Network latency average = 22.8895
	minimum = 7
	maximum = 79
Slowest packet = 19018
Flit latency average = 22.8895
	minimum = 7
	maximum = 79
Slowest flit = 19018
Fragmentation average = 0
	minimum = 0
	maximum = 0
Injected packet rate average = 0.05075
	minimum = 0.032 (at node 2)
	maximum = 0.06 (at node 1)
Accepted packet rate average = 0.0475
	minimum = 0.036 (at node 5)
	maximum = 0.076 (at node 6)
Injected flit rate average = 0.05075
	minimum = 0.032 (at node 2)
	maximum = 0.06 (at node 1)
Accepted flit rate average= 0.0475
	minimum = 0.036 (at node 5)
	maximum = 0.076 (at node 6)
Injected packet length average = 1
Accepted packet length average = 1
Total in-flight flits = 26 (0 measured)
latency change    = 1
throughput change = 1
Class 0:
Packet latency average = 24.1543
	minimum = 7
	maximum = 79
Network latency average = 24.1543
	minimum = 7
	maximum = 79
Slowest packet = 19018
Flit latency average = 24.1543
	minimum = 7
	maximum = 79
Slowest flit = 19018
Fragmentation average = 0
	minimum = 0
	maximum = 0
Injected packet rate average = 0.0491875
	minimum = 0.038 (at node 2)
	maximum = 0.058 (at node 6)
Accepted packet rate average = 0.0481875
	minimum = 0.039 (at node 2)
	maximum = 0.068 (at node 11)
Injected flit rate average = 0.0491875
	minimum = 0.038 (at node 2)
	maximum = 0.058 (at node 6)
Accepted flit rate average= 0.0481875
	minimum = 0.039 (at node 2)
	maximum = 0.068 (at node 11)
Injected packet length average = 1
Accepted packet length average = 1
Total in-flight flits = 16 (0 measured)
latency change    = 0.0523662
throughput change = 0.0142672
Class 0:
Packet latency average = 26.6617
	minimum = 7
	maximum = 112
Network latency average = 26.6617
	minimum = 7
	maximum = 112
Slowest packet = 19781
Flit latency average = 26.6617
	minimum = 7
	maximum = 112
Slowest flit = 19781
Fragmentation average = 0
	minimum = 0
	maximum = 0
Injected packet rate average = 0.05
	minimum = 0.036 (at node 4)
	maximum = 0.062 (at node 2)
Accepted packet rate average = 0.049875
	minimum = 0.038 (at node 9)
	maximum = 0.062 (at node 3)
Injected flit rate average = 0.05
	minimum = 0.036 (at node 4)
	maximum = 0.062 (at node 2)
Accepted flit rate average= 0.049875
	minimum = 0.038 (at node 9)
	maximum = 0.062 (at node 3)
Injected packet length average = 1
Accepted packet length average = 1
Total in-flight flits = 17 (0 measured)
latency change    = 0.0940418
throughput change = 0.0338346
Warmed up ...Time used is 1500 cycles
Class 0:
Packet latency average = 26.1243
	minimum = 7
	maximum = 73
Network latency average = 26.1243
	minimum = 7
	maximum = 73
Slowest packet = 20145
Flit latency average = 26.5565
	minimum = 7
	maximum = 87
Slowest flit = 19895
Fragmentation average = 0
	minimum = 0
	maximum = 0
Injected packet rate average = 0.04575
	minimum = 0.018 (at node 5)
	maximum = 0.064 (at node 9)
Accepted packet rate average = 0.045375
	minimum = 0.028 (at node 10)
	maximum = 0.066 (at node 4)
Injected flit rate average = 0.04575
	minimum = 0.018 (at node 5)
	maximum = 0.064 (at node 9)
Accepted flit rate average= 0.045375
	minimum = 0.028 (at node 10)
	maximum = 0.066 (at node 4)
Injected packet length average = 1
Accepted packet length average = 1
Total in-flight flits = 20 (20 measured)
latency change    = 0.02057
throughput change = 0.0991736
Class 0:
Packet latency average = 27.4739
	minimum = 7
	maximum = 110
Network latency average = 27.4739
	minimum = 7
	maximum = 110
Slowest packet = 20486
Flit latency average = 27.6537
	minimum = 7
	maximum = 110
Slowest flit = 20486
Fragmentation average = 0
	minimum = 0
	maximum = 0
Injected packet rate average = 0.04725
	minimum = 0.03 (at node 5)
	maximum = 0.056 (at node 3)
Accepted packet rate average = 0.0465625
	minimum = 0.034 (at node 1)
	maximum = 0.066 (at node 13)
Injected flit rate average = 0.04725
	minimum = 0.03 (at node 5)
	maximum = 0.056 (at node 3)
Accepted flit rate average= 0.0465625
	minimum = 0.034 (at node 1)
	maximum = 0.066 (at node 13)
Injected packet length average = 1
Accepted packet length average = 1
Total in-flight flits = 28 (28 measured)
latency change    = 0.0491238
throughput change = 0.0255034
Class 0:
Packet latency average = 26.9713
	minimum = 7
	maximum = 110
Network latency average = 26.9713
	minimum = 7
	maximum = 110
Slowest packet = 20486
Flit latency average = 27.0972
	minimum = 7
	maximum = 110
Slowest flit = 20486
Fragmentation average = 0
	minimum = 0
	maximum = 0
Injected packet rate average = 0.047375
	minimum = 0.04 (at node 1)
	maximum = 0.0626667 (at node 3)
Accepted packet rate average = 0.0471667
	minimum = 0.036 (at node 1)
	maximum = 0.0626667 (at node 13)
Injected flit rate average = 0.047375
	minimum = 0.04 (at node 1)
	maximum = 0.0626667 (at node 3)
Accepted flit rate average= 0.0471667
	minimum = 0.036 (at node 1)
	maximum = 0.0626667 (at node 13)
Injected packet length average = 1
Accepted packet length average = 1
Total in-flight flits = 22 (22 measured)
latency change    = 0.0186346
throughput change = 0.0128092
Class 0:
Packet latency average = 27.134
	minimum = 7
	maximum = 120
Network latency average = 27.134
	minimum = 7
	maximum = 120
Slowest packet = 21256
Flit latency average = 27.2257
	minimum = 7
	maximum = 120
Slowest flit = 21256
Fragmentation average = 0
	minimum = 0
	maximum = 0
Injected packet rate average = 0.0480625
	minimum = 0.0385 (at node 1)
	maximum = 0.0565 (at node 3)
Accepted packet rate average = 0.047625
	minimum = 0.0345 (at node 10)
	maximum = 0.058 (at node 4)
Injected flit rate average = 0.0480625
	minimum = 0.0385 (at node 1)
	maximum = 0.0565 (at node 3)
Accepted flit rate average= 0.047625
	minimum = 0.0345 (at node 10)
	maximum = 0.058 (at node 4)
Injected packet length average = 1
Accepted packet length average = 1
Total in-flight flits = 31 (31 measured)
latency change    = 0.00599766
throughput change = 0.0096238
Draining all recorded packets ...
Draining remaining packets ...
Time taken is 3619 cycles
Class 0:
Packet latency average = 32.7867
	minimum = 7
	maximum = 204
Network latency average = 32.4431
	minimum = 7
	maximum = 204
Slowest packet = 21659
Flit latency average = 32.4431
	minimum = 7
	maximum = 204
Slowest flit = 21659
Fragmentation average = 0
	minimum = 0
	maximum = 0
Injected packet rate average = 0.055125
	minimum = 0.044 (at node 15)
	maximum = 0.07 (at node 2)
Accepted packet rate average = 0.05275
	minimum = 0.034 (at node 7)
	maximum = 0.066 (at node 11)
Injected flit rate average = 0.055125
	minimum = 0.044 (at node 15)
	maximum = 0.07 (at node 2)
Accepted flit rate average= 0.05275
	minimum = 0.034 (at node 7)
	maximum = 0.066 (at node 11)
Injected packet length average = 1
Accepted packet length average = 1
Total in-flight flits = 19 (0 measured)
latency change    = 1
throughput change = 1
Class 0:
Packet latency average = 29.5761
	minimum = 7
	maximum = 204
Network latency average = 29.3913
	minimum = 7
	maximum = 204
Slowest packet = 21659
Flit latency average = 29.3913
	minimum = 7
	maximum = 204
Slowest flit = 21659
Fragmentation average = 0
	minimum = 0
	maximum = 0
Injected packet rate average = 0.052875
	minimum = 0.041 (at node 5)
	maximum = 0.075 (at node 14)
Accepted packet rate average = 0.05175
	minimum = 0.035 (at node 9)
	maximum = 0.067 (at node 8)
Injected flit rate average = 0.052875
	minimum = 0.041 (at node 5)
	maximum = 0.075 (at node 14)
Accepted flit rate average= 0.05175
	minimum = 0.035 (at node 9)
	maximum = 0.067 (at node 8)
Injected packet length average = 1
Accepted packet length average = 1
Total in-flight flits = 18 (0 measured)
latency change    = 0.108555
throughput change = 0.0193237
Class 0:
Packet latency average = 24.5875
	minimum = 7
	maximum = 95
Network latency average = 24.5875
	minimum = 7
	maximum = 95
Slowest packet = 22389
Flit latency average = 24.5875
	minimum = 7
	maximum = 95
Slowest flit = 22389
Fragmentation average = 0
	minimum = 0
	maximum = 0
Injected packet rate average = 0.05275
	minimum = 0.04 (at node 9)
	maximum = 0.076 (at node 4)
Accepted packet rate average = 0.052125
	minimum = 0.034 (at node 12)
	maximum = 0.078 (at node 2)
Injected flit rate average = 0.05275
	minimum = 0.04 (at node 9)
	maximum = 0.076 (at node 4)
Accepted flit rate average= 0.052125
	minimum = 0.034 (at node 12)
	maximum = 0.078 (at node 2)
Injected packet length average = 1
Accepted packet length average = 1
Total in-flight flits = 23 (0 measured)
latency change    = 0.20289
throughput change = 0.00719424
Warmed up ...Time used is 1500 cycles
Class 0:
Packet latency average = 26.2567
	minimum = 7
	maximum = 91
Network latency average = 26.2567
	minimum = 7
	maximum = 91
Slowest packet = 22801
Flit latency average = 26.8009
	minimum = 7
	maximum = 116
Slowest flit = 22683
Fragmentation average = 0
	minimum = 0
	maximum = 0
Injected packet rate average = 0.053625
	minimum = 0.032 (at node 1)
	maximum = 0.074 (at node 0)
Accepted packet rate average = 0.054
	minimum = 0.04 (at node 11)
	maximum = 0.07 (at node 9)
Injected flit rate average = 0.053625
	minimum = 0.032 (at node 1)
	maximum = 0.074 (at node 0)
Accepted flit rate average= 0.054
	minimum = 0.04 (at node 11)
	maximum = 0.07 (at node 9)
Injected packet length average = 1
Accepted packet length average = 1
Total in-flight flits = 20 (20 measured)
latency change    = 0.063572
throughput change = 0.0347222
Class 0:
Packet latency average = 25.9254
	minimum = 7
	maximum = 91
Network latency average = 25.9254
	minimum = 7
	maximum = 91
Slowest packet = 22801
Flit latency average = 26.214
	minimum = 7
	maximum = 116
Slowest flit = 22683
Fragmentation average = 0
	minimum = 0
	maximum = 0
Injected packet rate average = 0.0521875
	minimum = 0.039 (at node 13)
	maximum = 0.068 (at node 11)
Accepted packet rate average = 0.0525625
	minimum = 0.038 (at node 7)
	maximum = 0.062 (at node 9)
Injected flit rate average = 0.0521875
	minimum = 0.039 (at node 13)
	maximum = 0.068 (at node 11)
Accepted flit rate average= 0.0525625
	minimum = 0.038 (at node 7)
	maximum = 0.062 (at node 9)
Injected packet length average = 1
Accepted packet length average = 1
Total in-flight flits = 17 (17 measured)
latency change    = 0.0127788
throughput change = 0.0273484
Class 0:
Packet latency average = 26.0098
	minimum = 7
	maximum = 91
Network latency average = 26.009
	minimum = 7
	maximum = 91
Slowest packet = 22801
Flit latency average = 26.2022
	minimum = 7
	maximum = 116
Slowest flit = 22683
Fragmentation average = 0
	minimum = 0
	maximum = 0
Injected packet rate average = 0.0517083
	minimum = 0.0366667 (at node 13)
	maximum = 0.0613333 (at node 15)
Accepted packet rate average = 0.0519167
	minimum = 0.042 (at node 7)
	maximum = 0.064 (at node 9)
Injected flit rate average = 0.0517083
	minimum = 0.0366667 (at node 13)
	maximum = 0.0613333 (at node 15)
Accepted flit rate average= 0.0519167
	minimum = 0.042 (at node 7)
	maximum = 0.064 (at node 9)
Injected packet length average = 1
Accepted packet length average = 1
Total in-flight flits = 18 (18 measured)
latency change    = 0.00324432
throughput change = 0.0124398
Class 0:
Packet latency average = 25.8496
	minimum = 7
	maximum = 121
Network latency average = 25.8264
	minimum = 7
	maximum = 121
Slowest packet = 24048
Flit latency average = 25.9736
	minimum = 7
	maximum = 121
Slowest flit = 24048
Fragmentation average = 0
	minimum = 0
	maximum = 0
Injected packet rate average = 0.05175
	minimum = 0.041 (at node 5)
	maximum = 0.062 (at node 14)
Accepted packet rate average = 0.0520313
	minimum = 0.0415 (at node 7)
	maximum = 0.0595 (at node 9)
Injected flit rate average = 0.05175
	minimum = 0.041 (at node 5)
	maximum = 0.062 (at node 14)
Accepted flit rate average= 0.0520313
	minimum = 0.0415 (at node 7)
	maximum = 0.0595 (at node 9)
Injected packet length average = 1
Accepted packet length average = 1
Total in-flight flits = 14 (14 measured)
latency change    = 0.00619887
throughput change = 0.0022022
Draining all recorded packets ...
Draining remaining packets ...
Time taken is 3560 cycles
Class 0:
Packet latency average = 25.0726
	minimum = 7
	maximum = 81
Network latency average = 25.0726
	minimum = 7
	maximum = 81
Slowest packet = 24517
Flit latency average = 25.0726
	minimum = 7
	maximum = 81
Slowest flit = 24517
Fragmentation average = 0
	minimum = 0
	maximum = 0
Injected packet rate average = 0.049875
	minimum = 0.038 (at node 10)
	maximum = 0.072 (at node 15)
Accepted packet rate average = 0.0465
	minimum = 0.03 (at node 7)
	maximum = 0.06 (at node 6)
Injected flit rate average = 0.049875
	minimum = 0.038 (at node 10)
	maximum = 0.072 (at node 15)
Accepted flit rate average= 0.0465
	minimum = 0.03 (at node 7)
	maximum = 0.06 (at node 6)
Injected packet length average = 1
Accepted packet length average = 1
Total in-flight flits = 27 (0 measured)
latency change    = 1
throughput change = 1
Class 0:
Packet latency average = 25.3268
	minimum = 7
	maximum = 110
Network latency average = 25.3268
	minimum = 7
	maximum = 110
Slowest packet = 24779
Flit latency average = 25.3268
	minimum = 7
	maximum = 110
Slowest flit = 24779
Fragmentation average = 0
	minimum = 0
	maximum = 0
Injected packet rate average = 0.0493125
	minimum = 0.04 (at node 10)
	maximum = 0.065 (at node 4)
Accepted packet rate average = 0.0478125
	minimum = 0.032 (at node 15)
	maximum = 0.066 (at node 6)
Injected flit rate average = 0.0493125
	minimum = 0.04 (at node 10)
	maximum = 0.065 (at node 4)
Accepted flit rate average= 0.0478125
	minimum = 0.032 (at node 15)
	maximum = 0.066 (at node 6)
Injected packet length average = 1
Accepted packet length average = 1
Total in-flight flits = 24 (0 measured)
latency change    = 0.0100375
throughput change = 0.027451
Class 0:
Packet latency average = 27.0466
	minimum = 7
	maximum = 98
Network latency average = 27.0466
	minimum = 7
	maximum = 98
Slowest packet = 25455
Flit latency average = 27.0466
	minimum = 7
	maximum = 98
Slowest flit = 25455
Fragmentation average = 0
	minimum = 0
	maximum = 0
Injected packet rate average = 0.046
	minimum = 0.03 (at node 7)
	maximum = 0.062 (at node 5)
Accepted packet rate average = 0.045625
	minimum = 0.026 (at node 0)
	maximum = 0.06 (at node 2)
Injected flit rate average = 0.046
	minimum = 0.03 (at node 7)
	maximum = 0.062 (at node 5)
Accepted flit rate average= 0.045625
	minimum = 0.026 (at node 0)
	maximum = 0.06 (at node 2)
Injected packet length average = 1
Accepted packet length average = 1
Total in-flight flits = 27 (0 measured)
latency change    = 0.0635858
throughput change = 0.0479452
Warmed up ...Time used is 1500 cycles
Class 0:
Packet latency average = 26.4754
	minimum = 7
	maximum = 86
Network latency average = 26.4754
	minimum = 7
	maximum = 86
Slowest packet = 25663
Flit latency average = 28.084
	minimum = 7
	maximum = 117
Slowest flit = 25504
Fragmentation average = 0
	minimum = 0
	maximum = 0
Injected packet rate average = 0.048875
	minimum = 0.032 (at node 1)
	maximum = 0.074 (at node 2)
Accepted packet rate average = 0.049125
	minimum = 0.036 (at node 13)
	maximum = 0.066 (at node 10)
Injected flit rate average = 0.048875
	minimum = 0.032 (at node 1)
	maximum = 0.074 (at node 2)
Accepted flit rate average= 0.049125
	minimum = 0.036 (at node 13)
	maximum = 0.066 (at node 10)
Injected packet length average = 1
Accepted packet length average = 1
Total in-flight flits = 25 (25 measured)
latency change    = 0.0215734
throughput change = 0.0712468
Class 0:
Packet latency average = 25.6815
	minimum = 7
	maximum = 86
Network latency average = 25.6815
	minimum = 7
	maximum = 86
Slowest packet = 25663
Flit latency average = 26.4865
	minimum = 7
	maximum = 117
Slowest flit = 25504
Fragmentation average = 0
	minimum = 0
	maximum = 0
Injected packet rate average = 0.05075
	minimum = 0.039 (at node 0)
	maximum = 0.066 (at node 3)
Accepted packet rate average = 0.05075
	minimum = 0.04 (at node 6)
	maximum = 0.064 (at node 0)
Injected flit rate average = 0.05075
	minimum = 0.039 (at node 0)
	maximum = 0.066 (at node 3)
Accepted flit rate average= 0.05075
	minimum = 0.04 (at node 6)
	maximum = 0.064 (at node 0)
Injected packet length average = 1
Accepted packet length average = 1
Total in-flight flits = 27 (27 measured)
latency change    = 0.0309125
throughput change = 0.0320197
Class 0:
Packet latency average = 25.0135
	minimum = 7
	maximum = 86
Network latency average = 25.0135
	minimum = 7
	maximum = 86
Slowest packet = 25663
Flit latency average = 25.5667
	minimum = 7
	maximum = 117
Slowest flit = 25504
Fragmentation average = 0
	minimum = 0
	maximum = 0
Injected packet rate average = 0.0502083
	minimum = 0.0413333 (at node 12)
	maximum = 0.0613333 (at node 3)
Accepted packet rate average = 0.0505833
	minimum = 0.0373333 (at node 6)
	maximum = 0.0613333 (at node 0)
Injected flit rate average = 0.0502083
	minimum = 0.0413333 (at node 12)
	maximum = 0.0613333 (at node 3)
Accepted flit rate average= 0.0505833
	minimum = 0.0373333 (at node 6)
	maximum = 0.0613333 (at node 0)
Injected packet length average = 1
Accepted packet length average = 1
Total in-flight flits = 18 (18 measured)
latency change    = 0.0267076
throughput change = 0.00329489
Class 0:
Packet latency average = 25.0636
	minimum = 7
	maximum = 86
Network latency average = 25.0636
	minimum = 7
	maximum = 86
Slowest packet = 25663
Flit latency average = 25.4786
	minimum = 7
	maximum = 117
Slowest flit = 25504
Fragmentation average = 0
	minimum = 0
	maximum = 0
Injected packet rate average = 0.050375
	minimum = 0.0405 (at node 12)
	maximum = 0.0585 (at node 2)
Accepted packet rate average = 0.0504687
	minimum = 0.0385 (at node 6)
	maximum = 0.0605 (at node 9)
Injected flit rate average = 0.050375
	minimum = 0.0405 (at node 12)
	maximum = 0.0585 (at node 2)
Accepted flit rate average= 0.0504687
	minimum = 0.0385 (at node 6)
	maximum = 0.0605 (at node 9)
Injected packet length average = 1
Accepted packet length average = 1
Total in-flight flits = 24 (24 measured)
latency change    = 0.00199982
throughput change = 0.00227038
Draining all recorded packets ...
Draining remaining packets ...
Time taken is 3563 cycles
Class 0:
Packet latency average = 24.6815
	minimum = 7
	maximum = 84
Network latency average = 24.6815
	minimum = 7
	maximum = 84
Slowest packet = 27461
Flit latency average = 24.6815
	minimum = 7
	maximum = 84
Slowest flit = 27461
Fragmentation average = 0
	minimum = 0
	maximum = 0
Injected packet rate average = 0.0445
	minimum = 0.024 (at node 6)
	maximum = 0.062 (at node 14)
Accepted packet rate average = 0.042
	minimum = 0.026 (at node 4)
	maximum = 0.07 (at node 0)
Injected flit rate average = 0.0445
	minimum = 0.024 (at node 6)
	maximum = 0.062 (at node 14)
Accepted flit rate average= 0.042
	minimum = 0.026 (at node 4)
	maximum = 0.07 (at node 0)
Injected packet length average = 1
Accepted packet length average = 1
Total in-flight flits = 20 (0 measured)
latency change    = 1
throughput change = 1
Class 0:
Packet latency average = 28.5844
	minimum = 7
	maximum = 178
Network latency average = 28.0435
	minimum = 7
	maximum = 175
Slowest packet = 27764
Flit latency average = 28.0435
	minimum = 7
	maximum = 175
Slowest flit = 27764
Fragmentation average = 0
	minimum = 0
	maximum = 0
Injected packet rate average = 0.04875
	minimum = 0.037 (at node 4)
	maximum = 0.067 (at node 14)
Accepted packet rate average = 0.047375
	minimum = 0.04 (at node 9)
	maximum = 0.058 (at node 0)
Injected flit rate average = 0.04875
	minimum = 0.037 (at node 4)
	maximum = 0.067 (at node 14)
Accepted flit rate average= 0.047375
	minimum = 0.04 (at node 9)
	maximum = 0.058 (at node 0)
Injected packet length average = 1
Accepted packet length average = 1
Total in-flight flits = 22 (0 measured)
latency change    = 0.136539
throughput change = 0.113456
Class 0:
Packet latency average = 25.7946
	minimum = 7
	maximum = 98
Network latency average = 25.7871
	minimum = 7
	maximum = 98
Slowest packet = 28244
Flit latency average = 25.7871
	minimum = 7
	maximum = 98
Slowest flit = 28244
Fragmentation average = 0
	minimum = 0
	maximum = 0
Injected packet rate average = 0.049875
	minimum = 0.032 (at node 11)
	maximum = 0.07 (at node 10)
Accepted packet rate average = 0.0505
	minimum = 0.038 (at node 2)
	maximum = 0.072 (at node 12)
Injected flit rate average = 0.049875
	minimum = 0.032 (at node 11)
	maximum = 0.07 (at node 10)
Accepted flit rate average= 0.0505
	minimum = 0.038 (at node 2)
	maximum = 0.072 (at node 12)
Injected packet length average = 1
Accepted packet length average = 1
Total in-flight flits = 17 (0 measured)
latency change    = 0.108158
throughput change = 0.0618812
Warmed up ...Time used is 1500 cycles
Class 0:
Packet latency average = 27.2421
	minimum = 7
	maximum = 133
Network latency average = 27.2421
	minimum = 7
	maximum = 133
Slowest packet = 28624
Flit latency average = 27.4332
	minimum = 7
	maximum = 133
Slowest flit = 28624
Fragmentation average = 0
	minimum = 0
	maximum = 0
Injected packet rate average = 0.04975
	minimum = 0.036 (at node 14)
	maximum = 0.058 (at node 12)
Accepted packet rate average = 0.049625
	minimum = 0.034 (at node 13)
	maximum = 0.06 (at node 0)
Injected flit rate average = 0.04975
	minimum = 0.036 (at node 14)
	maximum = 0.058 (at node 12)
Accepted flit rate average= 0.049625
	minimum = 0.034 (at node 13)
	maximum = 0.06 (at node 0)
Injected packet length average = 1
Accepted packet length average = 1
Total in-flight flits = 18 (18 measured)
latency change    = 0.0531365
throughput change = 0.0176322
Class 0:
Packet latency average = 26.2628
	minimum = 7
	maximum = 133
Network latency average = 26.2628
	minimum = 7
	maximum = 133
Slowest packet = 28624
Flit latency average = 26.3789
	minimum = 7
	maximum = 133
Slowest flit = 28624
Fragmentation average = 0
	minimum = 0
	maximum = 0
Injected packet rate average = 0.04975
	minimum = 0.039 (at node 14)
	maximum = 0.065 (at node 3)
Accepted packet rate average = 0.0498125
	minimum = 0.037 (at node 13)
	maximum = 0.067 (at node 6)
Injected flit rate average = 0.04975
	minimum = 0.039 (at node 14)
	maximum = 0.065 (at node 3)
Accepted flit rate average= 0.0498125
	minimum = 0.037 (at node 13)
	maximum = 0.067 (at node 6)
Injected packet length average = 1
Accepted packet length average = 1
Total in-flight flits = 16 (16 measured)
latency change    = 0.0372879
throughput change = 0.00376412
Class 0:
Packet latency average = 26.0246
	minimum = 7
	maximum = 133
Network latency average = 26.0246
	minimum = 7
	maximum = 133
Slowest packet = 28624
Flit latency average = 26.1082
	minimum = 7
	maximum = 133
Slowest flit = 28624
Fragmentation average = 0
	minimum = 0
	maximum = 0
Injected packet rate average = 0.0484167
	minimum = 0.0406667 (at node 0)
	maximum = 0.0593333 (at node 3)
Accepted packet rate average = 0.048125
	minimum = 0.0393333 (at node 15)
	maximum = 0.0606667 (at node 6)
Injected flit rate average = 0.0484167
	minimum = 0.0406667 (at node 0)
	maximum = 0.0593333 (at node 3)
Accepted flit rate average= 0.048125
	minimum = 0.0393333 (at node 15)
	maximum = 0.0606667 (at node 6)
Injected packet length average = 1
Accepted packet length average = 1
Total in-flight flits = 24 (24 measured)
latency change    = 0.00915349
throughput change = 0.0350649
Class 0:
Packet latency average = 26.0465
	minimum = 7
	maximum = 133
Network latency average = 26.0465
	minimum = 7
	maximum = 133
Slowest packet = 28624
Flit latency average = 26.1081
	minimum = 7
	maximum = 133
Slowest flit = 28624
Fragmentation average = 0
	minimum = 0
	maximum = 0
Injected packet rate average = 0.0488125
	minimum = 0.0415 (at node 6)
	maximum = 0.055 (at node 3)
Accepted packet rate average = 0.048875
	minimum = 0.043 (at node 13)
	maximum = 0.0585 (at node 6)
Injected flit rate average = 0.0488125
	minimum = 0.0415 (at node 6)
	maximum = 0.055 (at node 3)
Accepted flit rate average= 0.048875
	minimum = 0.043 (at node 13)
	maximum = 0.0585 (at node 6)
Injected packet length average = 1
Accepted packet length average = 1
Total in-flight flits = 15 (15 measured)
latency change    = 0.000842228
throughput change = 0.0153453
Draining all recorded packets ...
Draining remaining packets ...
Time taken is 3595 cycles
Class 0:
Packet latency average = 26.5014
	minimum = 7
	maximum = 129
Network latency average = 26.5014
	minimum = 7
	maximum = 129
Slowest packet = 30039
Flit latency average = 26.5014
	minimum = 7
	maximum = 129
Slowest flit = 30039
Fragmentation average = 0
	minimum = 0
	maximum = 0
Injected packet rate average = 0.048625
	minimum = 0.038 (at node 14)
	maximum = 0.068 (at node 10)
Accepted packet rate average = 0.045375
	minimum = 0.032 (at node 5)
	maximum = 0.056 (at node 9)
Injected flit rate average = 0.048625
	minimum = 0.038 (at node 14)
	maximum = 0.068 (at node 10)
Accepted flit rate average= 0.045375
	minimum = 0.032 (at node 5)
	maximum = 0.056 (at node 9)
Injected packet length average = 1
Accepted packet length average = 1
Total in-flight flits = 26 (0 measured)
latency change    = 1
throughput change = 1
Class 0:
Packet latency average = 25.7773
	minimum = 7
	maximum = 129
Network latency average = 25.7773
	minimum = 7
	maximum = 129
Slowest packet = 30039
Flit latency average = 25.7773
	minimum = 7
	maximum = 129
Slowest flit = 30039
Fragmentation average = 0
	minimum = 0
	maximum = 0
Injected packet rate average = 0.047
	minimum = 0.036 (at node 1)
	maximum = 0.053 (at node 2)
Accepted packet rate average = 0.04575
	minimum = 0.036 (at node 3)
	maximum = 0.054 (at node 9)
Injected flit rate average = 0.047
	minimum = 0.036 (at node 1)
	maximum = 0.053 (at node 2)
Accepted flit rate average= 0.04575
	minimum = 0.036 (at node 3)
	maximum = 0.054 (at node 9)
Injected packet length average = 1
Accepted packet length average = 1
Total in-flight flits = 20 (0 measured)
latency change    = 0.0280888
throughput change = 0.00819672
Class 0:
Packet latency average = 25.259
	minimum = 7
	maximum = 77
Network latency average = 25.259
	minimum = 7
	maximum = 77
Slowest packet = 31046
Flit latency average = 25.259
	minimum = 7
	maximum = 77
Slowest flit = 31046
Fragmentation average = 0
	minimum = 0
	maximum = 0
Injected packet rate average = 0.044
	minimum = 0.02 (at node 15)
	maximum = 0.054 (at node 6)
Accepted packet rate average = 0.045375
	minimum = 0.034 (at node 5)
	maximum = 0.06 (at node 11)
Injected flit rate average = 0.044
	minimum = 0.02 (at node 15)
	maximum = 0.054 (at node 6)
Accepted flit rate average= 0.045375
	minimum = 0.034 (at node 5)
	maximum = 0.06 (at node 11)
Injected packet length average = 1
Accepted packet length average = 1
Total in-flight flits = 9 (0 measured)
latency change    = 0.0205222
throughput change = 0.00826446
Warmed up ...Time used is 1500 cycles
Class 0:
Packet latency average = 23.3451
	minimum = 7
	maximum = 94
Network latency average = 23.3451
	minimum = 7
	maximum = 94
Slowest packet = 31330
Flit latency average = 23.4015
	minimum = 7
	maximum = 94
Slowest flit = 31330
Fragmentation average = 0
	minimum = 0
	maximum = 0
Injected packet rate average = 0.052125
	minimum = 0.028 (at node 15)
	maximum = 0.072 (at node 1)
Accepted packet rate average = 0.05075
	minimum = 0.034 (at node 14)
	maximum = 0.066 (at node 11)
Injected flit rate average = 0.052125
	minimum = 0.028 (at node 15)
	maximum = 0.072 (at node 1)
Accepted flit rate average= 0.05075
	minimum = 0.034 (at node 14)
	maximum = 0.066 (at node 11)
Injected packet length average = 1
Accepted packet length average = 1
Total in-flight flits = 20 (20 measured)
latency change    = 0.0819815
throughput change = 0.105911
Class 0:
Packet latency average = 23.9459
	minimum = 7
	maximum = 94
Network latency average = 23.9459
	minimum = 7
	maximum = 94
Slowest packet = 31330
Flit latency average = 23.9672
	minimum = 7
	maximum = 94
Slowest flit = 31330
Fragmentation average = 0
	minimum = 0
	maximum = 0
Injected packet rate average = 0.0519375
	minimum = 0.034 (at node 13)
	maximum = 0.066 (at node 1)
Accepted packet rate average = 0.0514375
	minimum = 0.041 (at node 5)
	maximum = 0.069 (at node 11)
Injected flit rate average = 0.0519375
	minimum = 0.034 (at node 13)
	maximum = 0.066 (at node 1)
Accepted flit rate average= 0.0514375
	minimum = 0.041 (at node 5)
	maximum = 0.069 (at node 11)
Injected packet length average = 1
Accepted packet length average = 1
Total in-flight flits = 17 (17 measured)
latency change    = 0.0250923
throughput change = 0.0133657
Class 0:
Packet latency average = 24.4704
	minimum = 7
	maximum = 114
Network latency average = 24.4621
	minimum = 7
	maximum = 114
Slowest packet = 32210
Flit latency average = 24.4727
	minimum = 7
	maximum = 114
Slowest flit = 32210
Fragmentation average = 0
	minimum = 0
	maximum = 0
Injected packet rate average = 0.0507917
	minimum = 0.0333333 (at node 13)
	maximum = 0.0606667 (at node 1)
Accepted packet rate average = 0.0504167
	minimum = 0.042 (at node 14)
	maximum = 0.0613333 (at node 11)
Injected flit rate average = 0.0507917
	minimum = 0.0333333 (at node 13)
	maximum = 0.0606667 (at node 1)
Accepted flit rate average= 0.0504167
	minimum = 0.042 (at node 14)
	maximum = 0.0613333 (at node 11)
Injected packet length average = 1
Accepted packet length average = 1
Total in-flight flits = 18 (18 measured)
latency change    = 0.0214338
throughput change = 0.0202479
Class 0:
Packet latency average = 24.8742
	minimum = 7
	maximum = 114
Network latency average = 24.868
	minimum = 7
	maximum = 114
Slowest packet = 32210
Flit latency average = 24.8736
	minimum = 7
	maximum = 114
Slowest flit = 32210
Fragmentation average = 0
	minimum = 0
	maximum = 0
Injected packet rate average = 0.0513125
	minimum = 0.037 (at node 13)
	maximum = 0.061 (at node 1)
Accepted packet rate average = 0.0509375
	minimum = 0.0405 (at node 14)
	maximum = 0.0575 (at node 11)
Injected flit rate average = 0.0513125
	minimum = 0.037 (at node 13)
	maximum = 0.061 (at node 1)
Accepted flit rate average= 0.0509375
	minimum = 0.0405 (at node 14)
	maximum = 0.0575 (at node 11)
Injected packet length average = 1
Accepted packet length average = 1
Total in-flight flits = 21 (21 measured)
latency change    = 0.0162301
throughput change = 0.0102249
Draining all recorded packets ...
Draining remaining packets ...
Time taken is 3622 cycles
Class 0:
Packet latency average = 25.4171
	minimum = 7
	maximum = 94
Network latency average = 25.4171
	minimum = 7
	maximum = 94
Slowest packet = 33070
Flit latency average = 25.4171
	minimum = 7
	maximum = 94
Slowest flit = 33070
Fragmentation average = 0
	minimum = 0
	maximum = 0
Injected packet rate average = 0.046
	minimum = 0.028 (at node 5)
	maximum = 0.064 (at node 8)
Accepted packet rate average = 0.04375
	minimum = 0.036 (at node 4)
	maximum = 0.052 (at node 12)
Injected flit rate average = 0.046
	minimum = 0.028 (at node 5)
	maximum = 0.064 (at node 8)
Accepted flit rate average= 0.04375
	minimum = 0.036 (at node 4)
	maximum = 0.052 (at node 12)
Injected packet length average = 1
Accepted packet length average = 1
Total in-flight flits = 18 (0 measured)
latency change    = 1
throughput change = 1
Class 0:
Packet latency average = 27.7804
	minimum = 7
	maximum = 213
Network latency average = 27.7791
	minimum = 7
	maximum = 213
Slowest packet = 33399
Flit latency average = 27.7791
	minimum = 7
	maximum = 213
Slowest flit = 33399
Fragmentation average = 0
	minimum = 0
	maximum = 0
Injected packet rate average = 0.0489375
	minimum = 0.034 (at node 5)
	maximum = 0.062 (at node 8)
Accepted packet rate average = 0.0478125
	minimum = 0.038 (at node 0)
	maximum = 0.059 (at node 9)
Injected flit rate average = 0.0489375
	minimum = 0.034 (at node 5)
	maximum = 0.062 (at node 8)
Accepted flit rate average= 0.0478125
	minimum = 0.038 (at node 0)
	maximum = 0.059 (at node 9)
Injected packet length average = 1
Accepted packet length average = 1
Total in-flight flits = 18 (0 measured)
latency change    = 0.085069
throughput change = 0.0849673
Class 0:
Packet latency average = 24.5761
	minimum = 7
	maximum = 84
Network latency average = 24.5761
	minimum = 7
	maximum = 84
Slowest packet = 33639
Flit latency average = 24.5761
	minimum = 7
	maximum = 84
Slowest flit = 33639
Fragmentation average = 0
	minimum = 0
	maximum = 0
Injected packet rate average = 0.044875
	minimum = 0.026 (at node 12)
	maximum = 0.054 (at node 0)
Accepted packet rate average = 0.046
	minimum = 0.032 (at node 2)
	maximum = 0.06 (at node 7)
Injected flit rate average = 0.044875
	minimum = 0.026 (at node 12)
	maximum = 0.054 (at node 0)
Accepted flit rate average= 0.046
	minimum = 0.032 (at node 2)
	maximum = 0.06 (at node 7)
Injected packet length average = 1
Accepted packet length average = 1
Total in-flight flits = 9 (0 measured)
latency change    = 0.130383
throughput change = 0.0394022
Warmed up ...Time used is 1500 cycles
Class 0:
Packet latency average = 24.1268
	minimum = 7
	maximum = 87
Network latency average = 24.1268
	minimum = 7
	maximum = 87
Slowest packet = 34079
Flit latency average = 24.2363
	minimum = 7
	maximum = 87
Slowest flit = 34079
Fragmentation average = 0
	minimum = 0
	maximum = 0
Injected packet rate average = 0.046875
	minimum = 0.032 (at node 13)
	maximum = 0.06 (at node 6)
Accepted packet rate average = 0.0455
	minimum = 0.028 (at node 6)
	maximum = 0.06 (at node 14)
Injected flit rate average = 0.046875
	minimum = 0.032 (at node 13)
	maximum = 0.06 (at node 6)
Accepted flit rate average= 0.0455
	minimum = 0.028 (at node 6)
	maximum = 0.06 (at node 14)
Injected packet length average = 1
Accepted packet length average = 1
Total in-flight flits = 20 (20 measured)
latency change    = 0.0186236
throughput change = 0.010989
Class 0:
Packet latency average = 24.1031
	minimum = 7
	maximum = 102
Network latency average = 24.1031
	minimum = 7
	maximum = 102
Slowest packet = 34464
Flit latency average = 24.1535
	minimum = 7
	maximum = 102
Slowest flit = 34464
Fragmentation average = 0
	minimum = 0
	maximum = 0
Injected packet rate average = 0.0499375
	minimum = 0.042 (at node 7)
	maximum = 0.058 (at node 4)
Accepted packet rate average = 0.0496875
	minimum = 0.044 (at node 3)
	maximum = 0.059 (at node 7)
Injected flit rate average = 0.0499375
	minimum = 0.042 (at node 7)
	maximum = 0.058 (at node 4)
Accepted flit rate average= 0.0496875
	minimum = 0.044 (at node 3)
	maximum = 0.059 (at node 7)
Injected packet length average = 1
Accepted packet length average = 1
Total in-flight flits = 13 (13 measured)
latency change    = 0.000983574
throughput change = 0.0842767
Class 0:
Packet latency average = 25.5943
	minimum = 7
	maximum = 140
Network latency average = 25.5868
	minimum = 7
	maximum = 140
Slowest packet = 34963
Flit latency average = 25.6089
	minimum = 7
	maximum = 140
Slowest flit = 34963
Fragmentation average = 0
	minimum = 0
	maximum = 0
Injected packet rate average = 0.05075
	minimum = 0.0426667 (at node 9)
	maximum = 0.0646667 (at node 4)
Accepted packet rate average = 0.0502917
	minimum = 0.0433333 (at node 2)
	maximum = 0.058 (at node 7)
Injected flit rate average = 0.05075
	minimum = 0.0426667 (at node 9)
	maximum = 0.0646667 (at node 4)
Accepted flit rate average= 0.0502917
	minimum = 0.0433333 (at node 2)
	maximum = 0.058 (at node 7)
Injected packet length average = 1
Accepted packet length average = 1
Total in-flight flits = 20 (20 measured)
latency change    = 0.0582657
throughput change = 0.0120133
Class 0:
Packet latency average = 25.275
	minimum = 7
	maximum = 140
Network latency average = 25.2694
	minimum = 7
	maximum = 140
Slowest packet = 34963
Flit latency average = 25.2878
	minimum = 7
	maximum = 140
Slowest flit = 34963
Fragmentation average = 0
	minimum = 0
	maximum = 0
Injected packet rate average = 0.0509063
	minimum = 0.0435 (at node 2)
	maximum = 0.0635 (at node 4)
Accepted packet rate average = 0.0502812
	minimum = 0.046 (at node 13)
	maximum = 0.055 (at node 3)
Injected flit rate average = 0.0509063
	minimum = 0.0435 (at node 2)
	maximum = 0.0635 (at node 4)
Accepted flit rate average= 0.0502812
	minimum = 0.046 (at node 13)
	maximum = 0.055 (at node 3)
Injected packet length average = 1
Accepted packet length average = 1
Total in-flight flits = 29 (29 measured)
latency change    = 0.012634
throughput change = 0.000207168
Class 0:
Packet latency average = 25.4103
	minimum = 7
	maximum = 140
Network latency average = 25.4058
	minimum = 7
	maximum = 140
Slowest packet = 34963
Flit latency average = 25.4198
	minimum = 7
	maximum = 140
Slowest flit = 34963
Fragmentation average = 0
	minimum = 0
	maximum = 0
Injected packet rate average = 0.05115
	minimum = 0.042 (at node 2)
	maximum = 0.0612 (at node 4)
Accepted packet rate average = 0.0508
	minimum = 0.0432 (at node 12)
	maximum = 0.0568 (at node 3)
Injected flit rate average = 0.05115
	minimum = 0.042 (at node 2)
	maximum = 0.0612 (at node 4)
Accepted flit rate average= 0.0508
	minimum = 0.0432 (at node 12)
	maximum = 0.0568 (at node 3)
Injected packet length average = 1
Accepted packet length average = 1
Total in-flight flits = 23 (23 measured)
latency change    = 0.0053239
throughput change = 0.0102116
Class 0:
Packet latency average = 25.3499
	minimum = 7
	maximum = 140
Network latency average = 25.3462
	minimum = 7
	maximum = 140
Slowest packet = 34963
Flit latency average = 25.358
	minimum = 7
	maximum = 140
Slowest flit = 34963
Fragmentation average = 0
	minimum = 0
	maximum = 0
Injected packet rate average = 0.0511042
	minimum = 0.044 (at node 2)
	maximum = 0.0583333 (at node 4)
Accepted packet rate average = 0.0508542
	minimum = 0.0456667 (at node 12)
	maximum = 0.056 (at node 3)
Injected flit rate average = 0.0511042
	minimum = 0.044 (at node 2)
	maximum = 0.0583333 (at node 4)
Accepted flit rate average= 0.0508542
	minimum = 0.0456667 (at node 12)
	maximum = 0.056 (at node 3)
Injected packet length average = 1
Accepted packet length average = 1
Total in-flight flits = 21 (21 measured)
latency change    = 0.00238123
throughput change = 0.00106514
Draining all recorded packets ...
Draining remaining packets ...
Time taken is 4565 cycles
Class 0:
Packet latency average = 26.3459
	minimum = 7
	maximum = 114
Network latency average = 26.3459
	minimum = 7
	maximum = 114
Slowest packet = 36603
Flit latency average = 26.3459
	minimum = 7
	maximum = 114
Slowest flit = 36603
Fragmentation average = 0
	minimum = 0
	maximum = 0
Injected packet rate average = 0.04975
	minimum = 0.034 (at node 3)
	maximum = 0.066 (at node 12)
Accepted packet rate average = 0.04625
	minimum = 0.026 (at node 9)
	maximum = 0.068 (at node 14)
Injected flit rate average = 0.04975
	minimum = 0.034 (at node 3)
	maximum = 0.066 (at node 12)
Accepted flit rate average= 0.04625
	minimum = 0.026 (at node 9)
	maximum = 0.068 (at node 14)
Injected packet length average = 1
Accepted packet length average = 1
Total in-flight flits = 28 (0 measured)
latency change    = 1
throughput change = 1
Class 0:
Packet latency average = 25.8294
	minimum = 7
	maximum = 114
Network latency average = 25.8294
	minimum = 7
	maximum = 114
Slowest packet = 36603
Flit latency average = 25.8294
	minimum = 7
	maximum = 114
Slowest flit = 36603
Fragmentation average = 0
	minimum = 0
	maximum = 0
Injected packet rate average = 0.0510625
	minimum = 0.042 (at node 11)
	maximum = 0.063 (at node 14)
Accepted packet rate average = 0.0498125
	minimum = 0.035 (at node 11)
	maximum = 0.064 (at node 14)
Injected flit rate average = 0.0510625
	minimum = 0.042 (at node 11)
	maximum = 0.063 (at node 14)
Accepted flit rate average= 0.0498125
	minimum = 0.035 (at node 11)
	maximum = 0.064 (at node 14)
Injected packet length average = 1
[...]
	maximum = 89
Slowest flit = 140691
Fragmentation average = 0
	minimum = 0
	maximum = 0
Injected packet rate average = 0.050125
	minimum = 0.028 (at node 9)
	maximum = 0.064 (at node 13)
Accepted packet rate average = 0.05075
	minimum = 0.038 (at node 3)
	maximum = 0.074 (at node 15)
Injected flit rate average = 0.050125
	minimum = 0.028 (at node 9)
	maximum = 0.064 (at node 13)
Accepted flit rate average= 0.05075
	minimum = 0.038 (at node 3)
	maximum = 0.074 (at node 15)
Injected packet length average = 1
Accepted packet length average = 1
Total in-flight flits = 18 (0 measured)
latency change    = 0.0237107
throughput change = 0.0591133
Warmed up ...Time used is 1500 cycles
Class 0:
Packet latency average = 23.112
	minimum = 7
	maximum = 83
Network latency average = 23.112
	minimum = 7
	maximum = 83
Slowest packet = 141040
Flit latency average = 23.4224
	minimum = 7
	maximum = 83
Slowest flit = 141040
Fragmentation average = 0
	minimum = 0
	maximum = 0
Injected packet rate average = 0.048375
	minimum = 0.03 (at node 8)
	maximum = 0.066 (at node 6)
Accepted packet rate average = 0.049125
	minimum = 0.034 (at node 13)
	maximum = 0.07 (at node 5)
Injected flit rate average = 0.048375
	minimum = 0.03 (at node 8)
	maximum = 0.066 (at node 6)
Accepted flit rate average= 0.049125
	minimum = 0.034 (at node 13)
	maximum = 0.07 (at node 5)
Injected packet length average = 1
Accepted packet length average = 1
Total in-flight flits = 12 (12 measured)
latency change    = 0.05494
throughput change = 0.0330789
Class 0:
Packet latency average = 23.4714
	minimum = 7
	maximum = 91
Network latency average = 23.4714
	minimum = 7
	maximum = 91
Slowest packet = 141607
Flit latency average = 23.618
	minimum = 7
	maximum = 91
Slowest flit = 141607
Fragmentation average = 0
	minimum = 0
	maximum = 0
Injected packet rate average = 0.049625
	minimum = 0.035 (at node 8)
	maximum = 0.059 (at node 14)
Accepted packet rate average = 0.04925
	minimum = 0.038 (at node 4)
	maximum = 0.067 (at node 5)
Injected flit rate average = 0.049625
	minimum = 0.035 (at node 8)
	maximum = 0.059 (at node 14)
Accepted flit rate average= 0.04925
	minimum = 0.038 (at node 4)
	maximum = 0.067 (at node 5)
Injected packet length average = 1
Accepted packet length average = 1
Total in-flight flits = 24 (24 measured)
latency change    = 0.0153135
throughput change = 0.00253807
Class 0:
Packet latency average = 24.7212
	minimum = 7
	maximum = 110
Network latency average = 24.7145
	minimum = 7
	maximum = 110
Slowest packet = 141999
Flit latency average = 24.7911
	minimum = 7
	maximum = 110
Slowest flit = 141999
Fragmentation average = 0
	minimum = 0
	maximum = 0
Injected packet rate average = 0.0509167
	minimum = 0.0406667 (at node 10)
	maximum = 0.0593333 (at node 6)
Accepted packet rate average = 0.0506667
	minimum = 0.0433333 (at node 7)
	maximum = 0.0613333 (at node 2)
Injected flit rate average = 0.0509167
	minimum = 0.0406667 (at node 10)
	maximum = 0.0593333 (at node 6)
Accepted flit rate average= 0.0506667
	minimum = 0.0433333 (at node 7)
	maximum = 0.0613333 (at node 2)
Injected packet length average = 1
Accepted packet length average = 1
Total in-flight flits = 24 (24 measured)
latency change    = 0.0505547
throughput change = 0.0279605
Class 0:
Packet latency average = 25.5653
	minimum = 7
	maximum = 130
Network latency average = 25.5604
	minimum = 7
	maximum = 130
Slowest packet = 142424
Flit latency average = 25.6076
	minimum = 7
	maximum = 130
Slowest flit = 142424
Fragmentation average = 0
	minimum = 0
	maximum = 0
Injected packet rate average = 0.0515
	minimum = 0.0435 (at node 8)
	maximum = 0.064 (at node 14)
Accepted packet rate average = 0.0515313
	minimum = 0.046 (at node 10)
	maximum = 0.06 (at node 6)
Injected flit rate average = 0.0515
	minimum = 0.0435 (at node 8)
	maximum = 0.064 (at node 14)
Accepted flit rate average= 0.0515313
	minimum = 0.046 (at node 10)
	maximum = 0.06 (at node 6)
Injected packet length average = 1
Accepted packet length average = 1
Total in-flight flits = 17 (17 measured)
latency change    = 0.0330172
throughput change = 0.0167778
Class 0:
Packet latency average = 25.9608
	minimum = 7
	maximum = 130
Network latency average = 25.9554
	minimum = 7
	maximum = 130
Slowest packet = 142424
Flit latency average = 25.9898
	minimum = 7
	maximum = 130
Slowest flit = 142424
Fragmentation average = 0
	minimum = 0
	maximum = 0
Injected packet rate average = 0.05145
	minimum = 0.044 (at node 10)
	maximum = 0.06 (at node 14)
Accepted packet rate average = 0.05145
	minimum = 0.0452 (at node 8)
	maximum = 0.0604 (at node 2)
Injected flit rate average = 0.05145
	minimum = 0.044 (at node 10)
	maximum = 0.06 (at node 14)
Accepted flit rate average= 0.05145
	minimum = 0.0452 (at node 8)
	maximum = 0.0604 (at node 2)
Injected packet length average = 1
Accepted packet length average = 1
Total in-flight flits = 18 (18 measured)
latency change    = 0.015234
throughput change = 0.0015792
Class 0:
Packet latency average = 25.8779
	minimum = 7
	maximum = 130
Network latency average = 25.8734
	minimum = 7
	maximum = 130
Slowest packet = 142424
Flit latency average = 25.9027
	minimum = 7
	maximum = 130
Slowest flit = 142424
Fragmentation average = 0
	minimum = 0
	maximum = 0
Injected packet rate average = 0.0513333
	minimum = 0.0443333 (at node 8)
	maximum = 0.0586667 (at node 14)
Accepted packet rate average = 0.0513958
	minimum = 0.046 (at node 8)
	maximum = 0.0583333 (at node 2)
Injected flit rate average = 0.0513333
	minimum = 0.0443333 (at node 8)
	maximum = 0.0586667 (at node 14)
Accepted flit rate average= 0.0513958
	minimum = 0.046 (at node 8)
	maximum = 0.0583333 (at node 2)
Injected packet length average = 1
Accepted packet length average = 1
Total in-flight flits = 15 (15 measured)
latency change    = 0.00320254
throughput change = 0.00105391
Draining all recorded packets ...
Draining remaining packets ...
Time taken is 4631 cycles
Class 0:
Packet latency average = 23.1586
	minimum = 7
	maximum = 96
Network latency average = 23.1586
	minimum = 7
	maximum = 96
Slowest packet = 143599
Flit latency average = 23.1586
	minimum = 7
	maximum = 96
Slowest flit = 143599
Fragmentation average = 0
	minimum = 0
	maximum = 0
Injected packet rate average = 0.04625
	minimum = 0.03 (at node 5)
	maximum = 0.068 (at node 7)
Accepted packet rate average = 0.044125
	minimum = 0.03 (at node 6)
	maximum = 0.068 (at node 5)
Injected flit rate average = 0.04625
	minimum = 0.03 (at node 5)
	maximum = 0.068 (at node 7)
Accepted flit rate average= 0.044125
	minimum = 0.03 (at node 6)
	maximum = 0.068 (at node 5)
Injected packet length average = 1
Accepted packet length average = 1
Total in-flight flits = 17 (0 measured)
latency change    = 1
throughput change = 1
Class 0:
Packet latency average = 23.9528
	minimum = 7
	maximum = 96
Network latency average = 23.9528
	minimum = 7
	maximum = 96
Slowest packet = 143599
Flit latency average = 23.9528
	minimum = 7
	maximum = 96
Slowest flit = 143599
Fragmentation average = 0
	minimum = 0
	maximum = 0
Injected packet rate average = 0.047625
	minimum = 0.038 (at node 2)
	maximum = 0.06 (at node 9)
Accepted packet rate average = 0.0463125
	minimum = 0.03 (at node 10)
	maximum = 0.061 (at node 1)
Injected flit rate average = 0.047625
	minimum = 0.038 (at node 2)
	maximum = 0.06 (at node 9)
Accepted flit rate average= 0.0463125
	minimum = 0.03 (at node 10)
	maximum = 0.061 (at node 1)
Injected packet length average = 1
Accepted packet length average = 1
Total in-flight flits = 21 (0 measured)
latency change    = 0.0331538
throughput change = 0.0472335
Class 0:
Packet latency average = 26.6633
	minimum = 7
	maximum = 118
Network latency average = 26.6633
	minimum = 7
	maximum = 118
Slowest packet = 144534
Flit latency average = 26.6633
	minimum = 7
	maximum = 118
Slowest flit = 144534
Fragmentation average = 0
	minimum = 0
	maximum = 0
Injected packet rate average = 0.04925
	minimum = 0.034 (at node 6)
	maximum = 0.068 (at node 2)
Accepted packet rate average = 0.049
	minimum = 0.036 (at node 10)
	maximum = 0.068 (at node 11)
Injected flit rate average = 0.04925
	minimum = 0.034 (at node 6)
	maximum = 0.068 (at node 2)
Accepted flit rate average= 0.049
	minimum = 0.036 (at node 10)
	maximum = 0.068 (at node 11)
Injected packet length average = 1
Accepted packet length average = 1
Total in-flight flits = 23 (0 measured)
latency change    = 0.101657
throughput change = 0.0548469
Warmed up ...Time used is 1500 cycles
Class 0:
Packet latency average = 24.1328
	minimum = 7
	maximum = 81
Network latency average = 24.1328
	minimum = 7
	maximum = 81
Slowest packet = 144783
Flit latency average = 24.5602
	minimum = 7
	maximum = 81
Slowest flit = 144783
Fragmentation average = 0
	minimum = 0
	maximum = 0
Injected packet rate average = 0.050625
	minimum = 0.04 (at node 3)
	maximum = 0.068 (at node 8)
Accepted packet rate average = 0.050875
	minimum = 0.032 (at node 12)
	maximum = 0.074 (at node 0)
Injected flit rate average = 0.050625
	minimum = 0.04 (at node 3)
	maximum = 0.068 (at node 8)
Accepted flit rate average= 0.050875
	minimum = 0.032 (at node 12)
	maximum = 0.074 (at node 0)
Injected packet length average = 1
Accepted packet length average = 1
Total in-flight flits = 21 (21 measured)
latency change    = 0.104855
throughput change = 0.036855
Class 0:
Packet latency average = 25.7715
	minimum = 7
	maximum = 112
Network latency average = 25.7715
	minimum = 7
	maximum = 112
Slowest packet = 145093
Flit latency average = 25.9387
	minimum = 7
	maximum = 112
Slowest flit = 145093
Fragmentation average = 0
	minimum = 0
	maximum = 0
Injected packet rate average = 0.050375
	minimum = 0.041 (at node 13)
	maximum = 0.059 (at node 4)
Accepted packet rate average = 0.0509375
	minimum = 0.043 (at node 13)
	maximum = 0.068 (at node 0)
Injected flit rate average = 0.050375
	minimum = 0.041 (at node 13)
	maximum = 0.059 (at node 4)
Accepted flit rate average= 0.0509375
	minimum = 0.043 (at node 13)
	maximum = 0.068 (at node 0)
Injected packet length average = 1
Accepted packet length average = 1
Total in-flight flits = 14 (14 measured)
latency change    = 0.063584
throughput change = 0.00122699
Class 0:
Packet latency average = 26.7303
	minimum = 7
	maximum = 133
Network latency average = 26.7038
	minimum = 7
	maximum = 133
Slowest packet = 145683
Flit latency average = 26.8002
	minimum = 7
	maximum = 133
Slowest flit = 145683
Fragmentation average = 0
	minimum = 0
	maximum = 0
Injected packet rate average = 0.0498333
	minimum = 0.0413333 (at node 9)
	maximum = 0.0573333 (at node 8)
Accepted packet rate average = 0.049625
	minimum = 0.04 (at node 12)
	maximum = 0.062 (at node 0)
Injected flit rate average = 0.0498333
	minimum = 0.0413333 (at node 9)
	maximum = 0.0573333 (at node 8)
Accepted flit rate average= 0.049625
	minimum = 0.04 (at node 12)
	maximum = 0.062 (at node 0)
Injected packet length average = 1
Accepted packet length average = 1
Total in-flight flits = 28 (28 measured)
latency change    = 0.035871
throughput change = 0.0264484
Class 0:
Packet latency average = 26.9312
	minimum = 7
	maximum = 133
Network latency average = 26.9114
	minimum = 7
	maximum = 133
Slowest packet = 145683
Flit latency average = 26.9805
	minimum = 7
	maximum = 133
Slowest flit = 145683
Fragmentation average = 0
	minimum = 0
	maximum = 0
Injected packet rate average = 0.049875
	minimum = 0.04 (at node 9)
	maximum = 0.0585 (at node 8)
Accepted packet rate average = 0.04975
	minimum = 0.04 (at node 12)
	maximum = 0.061 (at node 0)
Injected flit rate average = 0.049875
	minimum = 0.04 (at node 9)
	maximum = 0.0585 (at node 8)
Accepted flit rate average= 0.04975
	minimum = 0.04 (at node 12)
	maximum = 0.061 (at node 0)
Injected packet length average = 1
Accepted packet length average = 1
Total in-flight flits = 27 (27 measured)
latency change    = 0.0074582
throughput change = 0.00251256
Class 0:
Packet latency average = 26.5643
	minimum = 7
	maximum = 133
Network latency average = 26.5488
	minimum = 7
	maximum = 133
Slowest packet = 145683
Flit latency average = 26.6074
	minimum = 7
	maximum = 133
Slowest flit = 145683
Fragmentation average = 0
	minimum = 0
	maximum = 0
Injected packet rate average = 0.050475
	minimum = 0.0424 (at node 9)
	maximum = 0.056 (at node 8)
Accepted packet rate average = 0.0505
	minimum = 0.0392 (at node 12)
	maximum = 0.06 (at node 0)
Injected flit rate average = 0.050475
	minimum = 0.0424 (at node 9)
	maximum = 0.056 (at node 8)
Accepted flit rate average= 0.0505
	minimum = 0.0392 (at node 12)
	maximum = 0.06 (at node 0)
Injected packet length average = 1
Accepted packet length average = 1
Total in-flight flits = 22 (22 measured)
latency change    = 0.0138087
throughput change = 0.0148515
Draining all recorded packets ...
Draining remaining packets ...
Time taken is 4107 cycles
Class 0:
Packet latency average = 27.0678
	minimum = 7
	maximum = 104
Network latency average = 27.0678
	minimum = 7
	maximum = 104
Slowest packet = 146907
Flit latency average = 27.0678
	minimum = 7
	maximum = 104
Slowest flit = 146907
Fragmentation average = 0
	minimum = 0
	maximum = 0
Injected packet rate average = 0.05275
	minimum = 0.042 (at node 10)
	maximum = 0.062 (at node 5)
Accepted packet rate average = 0.04975
	minimum = 0.032 (at node 9)
	maximum = 0.072 (at node 4)
Injected flit rate average = 0.05275
	minimum = 0.042 (at node 10)
	maximum = 0.062 (at node 5)
Accepted flit rate average= 0.04975
	minimum = 0.032 (at node 9)
	maximum = 0.072 (at node 4)
Injected packet length average = 1
Accepted packet length average = 1
Total in-flight flits = 24 (0 measured)
latency change    = 1
throughput change = 1
Class 0:
Packet latency average = 25.8761
	minimum = 7
	maximum = 104
Network latency average = 25.8761
	minimum = 7
	maximum = 104
Slowest packet = 146907
Flit latency average = 25.8761
	minimum = 7
	maximum = 104
Slowest flit = 146907
Fragmentation average = 0
	minimum = 0
	maximum = 0
Injected packet rate average = 0.0491875
	minimum = 0.035 (at node 2)
	maximum = 0.058 (at node 5)
Accepted packet rate average = 0.0479375
	minimum = 0.027 (at node 9)
	maximum = 0.06 (at node 4)
Injected flit rate average = 0.0491875
	minimum = 0.035 (at node 2)
	maximum = 0.058 (at node 5)
Accepted flit rate average= 0.0479375
	minimum = 0.027 (at node 9)
	maximum = 0.06 (at node 4)
Injected packet length average = 1
Accepted packet length average = 1
Total in-flight flits = 20 (0 measured)
latency change    = 0.0460539
throughput change = 0.0378096
Class 0:
Packet latency average = 24.7113
	minimum = 7
	maximum = 92
Network latency average = 24.7113
	minimum = 7
	maximum = 92
Slowest packet = 147659
Flit latency average = 24.7113
	minimum = 7
	maximum = 92
Slowest flit = 147659
Fragmentation average = 0
	minimum = 0
	maximum = 0
Injected packet rate average = 0.047375
	minimum = 0.034 (at node 8)
	maximum = 0.058 (at node 13)
Accepted packet rate average = 0.047625
	minimum = 0.032 (at node 15)
	maximum = 0.062 (at node 0)
Injected flit rate average = 0.047375
	minimum = 0.034 (at node 8)
	maximum = 0.058 (at node 13)
Accepted flit rate average= 0.047625
	minimum = 0.032 (at node 15)
	maximum = 0.062 (at node 0)
Injected packet length average = 1
Accepted packet length average = 1
Total in-flight flits = 18 (0 measured)
latency change    = 0.0471386
throughput change = 0.00656168
Warmed up ...Time used is 1500 cycles
Class 0:
Packet latency average = 26.821
	minimum = 7
	maximum = 97
Network latency average = 26.821
	minimum = 7
	maximum = 97
Slowest packet = 147996
Flit latency average = 27.0856
	minimum = 7
	maximum = 97
Slowest flit = 147996
Fragmentation average = 0
	minimum = 0
	maximum = 0
Injected packet rate average = 0.051375
	minimum = 0.036 (at node 6)
	maximum = 0.07 (at node 10)
Accepted packet rate average = 0.051125
	minimum = 0.038 (at node 11)
	maximum = 0.07 (at node 12)
Injected flit rate average = 0.051375
	minimum = 0.036 (at node 6)
	maximum = 0.07 (at node 10)
Accepted flit rate average= 0.051125
	minimum = 0.038 (at node 11)
	maximum = 0.07 (at node 12)
Injected packet length average = 1
Accepted packet length average = 1
Total in-flight flits = 20 (20 measured)
latency change    = 0.0786581
throughput change = 0.0684597
Class 0:
Packet latency average = 25.5674
	minimum = 7
	maximum = 97
Network latency average = 25.5674
	minimum = 7
	maximum = 97
Slowest packet = 147996
Flit latency average = 25.7255
	minimum = 7
	maximum = 97
Slowest flit = 147996
Fragmentation average = 0
	minimum = 0
	maximum = 0
Injected packet rate average = 0.0521875
	minimum = 0.037 (at node 9)
	maximum = 0.063 (at node 10)
Accepted packet rate average = 0.0516875
	minimum = 0.043 (at node 7)
	maximum = 0.063 (at node 12)
Injected flit rate average = 0.0521875
	minimum = 0.037 (at node 9)
	maximum = 0.063 (at node 10)
Accepted flit rate average= 0.0516875
	minimum = 0.043 (at node 7)
	maximum = 0.063 (at node 12)
Injected packet length average = 1
Accepted packet length average = 1
Total in-flight flits = 26 (26 measured)
latency change    = 0.0490314
throughput change = 0.0108827
Class 0:
Packet latency average = 25.806
	minimum = 7
	maximum = 150
Network latency average = 25.801
	minimum = 7
	maximum = 150
Slowest packet = 148941
Flit latency average = 25.9053
	minimum = 7
	maximum = 150
Slowest flit = 148941
Fragmentation average = 0
	minimum = 0
	maximum = 0
Injected packet rate average = 0.0506667
	minimum = 0.036 (at node 9)
	maximum = 0.0606667 (at node 10)
Accepted packet rate average = 0.0505833
	minimum = 0.0406667 (at node 7)
	maximum = 0.062 (at node 12)
Injected flit rate average = 0.0506667
	minimum = 0.036 (at node 9)
	maximum = 0.0606667 (at node 10)
Accepted flit rate average= 0.0505833
	minimum = 0.0406667 (at node 7)
	maximum = 0.062 (at node 12)
Injected packet length average = 1
Accepted packet length average = 1
Total in-flight flits = 20 (20 measured)
latency change    = 0.00924796
throughput change = 0.0218287
Class 0:
Packet latency average = 25.8395
	minimum = 7
	maximum = 150
Network latency average = 25.8358
	minimum = 7
	maximum = 150
Slowest packet = 148941
Flit latency average = 25.9144
	minimum = 7
	maximum = 150
Slowest flit = 148941
Fragmentation average = 0
	minimum = 0
	maximum = 0
Injected packet rate average = 0.050125
	minimum = 0.037 (at node 9)
	maximum = 0.0605 (at node 10)
Accepted packet rate average = 0.0500312
	minimum = 0.0405 (at node 13)
	maximum = 0.0585 (at node 3)
Injected flit rate average = 0.050125
	minimum = 0.037 (at node 9)
	maximum = 0.0605 (at node 10)
Accepted flit rate average= 0.0500312
	minimum = 0.0405 (at node 13)
	maximum = 0.0585 (at node 3)
Injected packet length average = 1
Accepted packet length average = 1
Total in-flight flits = 21 (21 measured)
latency change    = 0.00129743
throughput change = 0.0110348
Draining all recorded packets ...
Draining remaining packets ...
Time taken is 3604 cycles
====== Overall Traffic Statistics ======
====== Traffic class 0 ======
Packet latency average = 26.1777 (50 samples)
	minimum = 7 (50 samples)
	maximum = 137.54 (50 samples)
Network latency average = 26.1617 (50 samples)
	minimum = 7 (50 samples)
	maximum = 137.32 (50 samples)
Flit latency average = 26.2736 (50 samples)
	minimum = 7 (50 samples)
	maximum = 138.98 (50 samples)
Fragmentation average = 0 (50 samples)
	minimum = 0 (50 samples)
	maximum = 0 (50 samples)
Injected packet rate average = 0.0501596 (50 samples)
	minimum = 0.0421953 (50 samples)
	maximum = 0.058463 (50 samples)
Accepted packet rate average = 0.0500959 (50 samples)
	minimum = 0.0414178 (50 samples)
	maximum = 0.0586859 (50 samples)
Injected flit rate average = 0.0501596 (50 samples)
	minimum = 0.0421953 (50 samples)
	maximum = 0.058463 (50 samples)
Accepted flit rate average = 0.0500959 (50 samples)
	minimum = 0.0414178 (50 samples)
	maximum = 0.0586859 (50 samples)
Injected packet size average = 1 (50 samples)
Accepted packet size average = 1 (50 samples)
Hops average = 4.17102 (50 samples)
Total run time 2.19914
