BEGIN Configuration File: /tmp/tmpe9__lqi1.cfg
topology = mesh;
k = 4;
n = 2;
routing_function = dor;
num_vcs = 4;
vc_buf_size = 4;
wait_for_tail_credit = 1;
vc_allocator = islip;
sw_allocator = islip;
alloc_iters = 1;
credit_delay = 2;
routing_delay = 1;
vc_alloc_delay = 1;
sw_alloc_delay = 1;
input_speedup = 2;
output_speedup = 1;
internal_speedup = 1.0;
traffic = transpose;
packet_size = 1;
sim_type = latency;
injection_rate = 0.01;
warmup_periods = 3;
sample_period = 500;
sim_count = 50;
seed = 2;
link_failures = 7;
fail_seed = 101;

END Configuration File: /tmp/tmpe9__lqi1.cfg
failure at node 14, channel 0 (1/7)
failure at node 12, channel 0 (2/7)
failure at node 4, channel 2 (3/7)
failure at node 11, channel 1 (4/7)
failure at node 5, channel 3 (5/7)
failure at node 9, channel 0 (6/7)
failure at node 8, channel 3 (7/7)
Class 0:
Packet latency average = 18.9516
	minimum = 7
	maximum = 37
Network latency average = 18.9516
	minimum = 7
	maximum = 37
Slowest packet = 1
Flit latency average = 18.9516
	minimum = 7
	maximum = 37
Slowest flit = 1
Fragmentation average = 0
	minimum = 0
	maximum = 0
Injected packet rate average = 0.008125
	minimum = 0 (at node 9)
	maximum = 0.014 (at node 5)
Accepted packet rate average = 0.00775
	minimum = 0 (at node 6)
	maximum = 0.014 (at node 5)
Injected flit rate average = 0.008125
	minimum = 0 (at node 9)
	maximum = 0.014 (at node 5)
Accepted flit rate average= 0.00775
	minimum = 0 (at node 6)
	maximum = 0.014 (at node 5)
Injected packet length average = 1
Accepted packet length average = 1
Total in-flight flits = 3 (0 measured)
latency change    = 1
throughput change = 1
Class 0:
Packet latency average = 18.2197
	minimum = 7
	maximum = 37
Network latency average = 18.2197
	minimum = 7
	maximum = 37
Slowest packet = 1
Flit latency average = 18.2197
	minimum = 7
	maximum = 37
Slowest flit = 1
Fragmentation average = 0
	minimum = 0
	maximum = 0
Injected packet rate average = 0.008625
	minimum = 0.003 (at node 2)
	maximum = 0.015 (at node 13)
Accepted packet rate average = 0.00825
	minimum = 0.003 (at node 6)
	maximum = 0.013 (at node 7)
Injected flit rate average = 0.008625
	minimum = 0.003 (at node 2)
	maximum = 0.015 (at node 13)
Accepted flit rate average= 0.00825
	minimum = 0.003 (at node 6)
	maximum = 0.013 (at node 7)
Injected packet length average = 1
Accepted packet length average = 1
Total in-flight flits = 6 (0 measured)
latency change    = 0.0401717
throughput change = 0.0606061
Class 0:
Packet latency average = 18.7647
	minimum = 7
	maximum = 37
Network latency average = 18.7647
	minimum = 7
	maximum = 37
Slowest packet = 131
Flit latency average = 18.7647
	minimum = 7
	maximum = 37
Slowest flit = 131
Fragmentation average = 0
	minimum = 0
	maximum = 0
Injected packet rate average = 0.01
	minimum = 0.002 (at node 3)
	maximum = 0.022 (at node 13)
Accepted packet rate average = 0.010625
	minimum = 0.002 (at node 4)
	maximum = 0.026 (at node 7)
Injected flit rate average = 0.01
	minimum = 0.002 (at node 3)
	maximum = 0.022 (at node 13)
Accepted flit rate average= 0.010625
	minimum = 0.002 (at node 4)
	maximum = 0.026 (at node 7)
Injected packet length average = 1
Accepted packet length average = 1
Total in-flight flits = 1 (0 measured)
latency change    = 0.0290444
throughput change = 0.223529
Warmed up ...Time used is 1500 cycles
Class 0:
Packet latency average = 19.069
	minimum = 7
	maximum = 37
Network latency average = 19.069
	minimum = 7
	maximum = 37
Slowest packet = 220
Flit latency average = 19.0455
	minimum = 7
	maximum = 37
Slowest flit = 220
Fragmentation average = 0
	minimum = 0
	maximum = 0
Injected packet rate average = 0.01125
	minimum = 0.004 (at node 15)
	maximum = 0.022 (at node 10)
Accepted packet rate average = 0.011
	minimum = 0.004 (at node 8)
	maximum = 0.022 (at node 10)
Injected flit rate average = 0.01125
	minimum = 0.004 (at node 15)
	maximum = 0.022 (at node 10)
Accepted flit rate average= 0.011
	minimum = 0.004 (at node 8)
	maximum = 0.022 (at node 10)
Injected packet length average = 1
Accepted packet length average = 1
Total in-flight flits = 3 (3 measured)
latency change    = 0.0159557
throughput change = 0.0340909
Class 0:
Packet latency average = 19.7108
	minimum = 7
	maximum = 37
Network latency average = 19.7108
	minimum = 7
	maximum = 37
Slowest packet = 220
Flit latency average = 19.6946
	minimum = 7
	maximum = 37
Slowest flit = 220
Fragmentation average = 0
	minimum = 0
	maximum = 0
Injected packet rate average = 0.0105
	minimum = 0.006 (at node 2)
	maximum = 0.015 (at node 3)
Accepted packet rate average = 0.0104375
	minimum = 0.006 (at node 8)
	maximum = 0.015 (at node 10)
Injected flit rate average = 0.0105
	minimum = 0.006 (at node 2)
	maximum = 0.015 (at node 3)
Accepted flit rate average= 0.0104375
	minimum = 0.006 (at node 8)
	maximum = 0.015 (at node 10)
Injected packet length average = 1
Accepted packet length average = 1
Total in-flight flits = 2 (2 measured)
latency change    = 0.0325647
throughput change = 0.0538922
Class 0:
Packet latency average = 20.0342
	minimum = 7
	maximum = 37
Network latency average = 20.0342
	minimum = 7
	maximum = 37
Slowest packet = 220
Flit latency average = 20.0213
	minimum = 7
	maximum = 37
Slowest flit = 220
Fragmentation average = 0
	minimum = 0
	maximum = 0
Injected packet rate average = 0.00983333
	minimum = 0.00666667 (at node 1)
	maximum = 0.0153333 (at node 3)
Accepted packet rate average = 0.00979167
	minimum = 0.00666667 (at node 2)
	maximum = 0.0153333 (at node 12)
Injected flit rate average = 0.00983333
	minimum = 0.00666667 (at node 1)
	maximum = 0.0153333 (at node 3)
Accepted flit rate average= 0.00979167
	minimum = 0.00666667 (at node 2)
	maximum = 0.0153333 (at node 12)
Injected packet length average = 1
Accepted packet length average = 1
Total in-flight flits = 2 (2 measured)
latency change    = 0.0161396
throughput change = 0.0659574
Class 0:
Packet latency average = 19.8571
	minimum = 7
	maximum = 37
Network latency average = 19.8571
	minimum = 7
	maximum = 37
Slowest packet = 220
Flit latency average = 19.8483
	minimum = 7
	maximum = 37
Slowest flit = 220
Fragmentation average = 0
	minimum = 0
	maximum = 0
Injected packet rate average = 0.0101875
	minimum = 0.0065 (at node 8)
	maximum = 0.014 (at node 10)
Accepted packet rate average = 0.0100938
	minimum = 0.0065 (at node 2)
	maximum = 0.014 (at node 10)
Injected flit rate average = 0.0101875
	minimum = 0.0065 (at node 8)
	maximum = 0.014 (at node 10)
Accepted flit rate average= 0.0100938
	minimum = 0.0065 (at node 2)
	maximum = 0.014 (at node 10)
Injected packet length average = 1
Accepted packet length average = 1
Total in-flight flits = 4 (4 measured)
latency change    = 0.00891594
throughput change = 0.0299278
Class 0:
Packet latency average = 19.7696
	minimum = 7
	maximum = 37
Network latency average = 19.7696
	minimum = 7
	maximum = 37
Slowest packet = 220
Flit latency average = 19.7628
	minimum = 7
	maximum = 37
Slowest flit = 220
Fragmentation average = 0
	minimum = 0
	maximum = 0
Injected packet rate average = 0.010275
	minimum = 0.0076 (at node 1)
	maximum = 0.0136 (at node 12)
Accepted packet rate average = 0.010225
	minimum = 0.0076 (at node 2)
	maximum = 0.0132 (at node 3)
Injected flit rate average = 0.010275
	minimum = 0.0076 (at node 1)
	maximum = 0.0136 (at node 12)
Accepted flit rate average= 0.010225
	minimum = 0.0076 (at node 2)
	maximum = 0.0132 (at node 3)
Injected packet length average = 1
Accepted packet length average = 1
Total in-flight flits = 3 (3 measured)
latency change    = 0.00442776
throughput change = 0.0128362
Class 0:
Packet latency average = 19.6585
	minimum = 7
	maximum = 37
Network latency average = 19.6585
	minimum = 7
	maximum = 37
Slowest packet = 220
Flit latency average = 19.6531
	minimum = 7
	maximum = 37
Slowest flit = 220
Fragmentation average = 0
	minimum = 0
	maximum = 0
Injected packet rate average = 0.0103125
	minimum = 0.00766667 (at node 1)
	maximum = 0.0136667 (at node 10)
Accepted packet rate average = 0.0102083
	minimum = 0.00766667 (at node 8)
	maximum = 0.0133333 (at node 10)
Injected flit rate average = 0.0103125
	minimum = 0.00766667 (at node 1)
	maximum = 0.0136667 (at node 10)
Accepted flit rate average= 0.0102083
	minimum = 0.00766667 (at node 8)
	maximum = 0.0133333 (at node 10)
Injected packet length average = 1
Accepted packet length average = 1
Total in-flight flits = 6 (6 measured)
latency change    = 0.00565258
throughput change = 0.00163265
Draining all recorded packets ...
Draining remaining packets ...
Time taken is 4553 cycles
Class 0:
Packet latency average = 17.1667
	minimum = 7
	maximum = 37
Network latency average = 17.1667
	minimum = 7
	maximum = 37
Slowest packet = 731
Flit latency average = 17.1667
	minimum = 7
	maximum = 37
Slowest flit = 731
Fragmentation average = 0
	minimum = 0
	maximum = 0
Injected packet rate average = 0.00875
	minimum = 0.004 (at node 7)
	maximum = 0.026 (at node 5)
Accepted packet rate average = 0.00825
	minimum = 0.004 (at node 2)
	maximum = 0.026 (at node 5)
Injected flit rate average = 0.00875
	minimum = 0.004 (at node 7)
	maximum = 0.026 (at node 5)
Accepted flit rate average= 0.00825
	minimum = 0.004 (at node 2)
	maximum = 0.026 (at node 5)
Injected packet length average = 1
Accepted packet length average = 1
Total in-flight flits = 4 (0 measured)
latency change    = 1
throughput change = 1
Class 0:
Packet latency average = 18.1456
	minimum = 7
	maximum = 37
Network latency average = 18.1456
	minimum = 7
	maximum = 37
Slowest packet = 731
Flit latency average = 18.1456
	minimum = 7
	maximum = 37
Slowest flit = 731
Fragmentation average = 0
	minimum = 0
	maximum = 0
Injected packet rate average = 0.01
	minimum = 0.005 (at node 2)
	maximum = 0.018 (at node 5)
Accepted packet rate average = 0.009875
	minimum = 0.005 (at node 2)
	maximum = 0.018 (at node 5)
Injected flit rate average = 0.01
	minimum = 0.005 (at node 2)
	maximum = 0.018 (at node 5)
Accepted flit rate average= 0.009875
	minimum = 0.005 (at node 2)
	maximum = 0.018 (at node 5)
Injected packet length average = 1
Accepted packet length average = 1
Total in-flight flits = 2 (0 measured)
latency change    = 0.0539472
throughput change = 0.164557
Class 0:
Packet latency average = 19.9333
	minimum = 7
	maximum = 37
Network latency average = 19.9333
	minimum = 7
	maximum = 37
Slowest packet = 873
Flit latency average = 19.9333
	minimum = 7
	maximum = 37
Slowest flit = 873
Fragmentation average = 0
	minimum = 0
	maximum = 0
Injected packet rate average = 0.009625
	minimum = 0.004 (at node 1)
	maximum = 0.018 (at node 9)
Accepted packet rate average = 0.009375
	minimum = 0.004 (at node 4)
	maximum = 0.016 (at node 7)
Injected flit rate average = 0.009625
	minimum = 0.004 (at node 1)
	maximum = 0.018 (at node 9)
Accepted flit rate average= 0.009375
	minimum = 0.004 (at node 4)
	maximum = 0.016 (at node 7)
Injected packet length average = 1
Accepted packet length average = 1
Total in-flight flits = 4 (0 measured)
latency change    = 0.0896871
throughput change = 0.0533333
Warmed up ...Time used is 1500 cycles
Class 0:
Packet latency average = 19.939
	minimum = 7
	maximum = 37
Network latency average = 19.939
	minimum = 7
	maximum = 37
Slowest packet = 971
Flit latency average = 19.9186
	minimum = 7
	maximum = 37
Slowest flit = 971
Fragmentation average = 0
	minimum = 0
	maximum = 0
Injected packet rate average = 0.010625
	minimum = 0.004 (at node 6)
	maximum = 0.016 (at node 5)
Accepted packet rate average = 0.01075
	minimum = 0.004 (at node 9)
	maximum = 0.018 (at node 13)
Injected flit rate average = 0.010625
	minimum = 0.004 (at node 6)
	maximum = 0.016 (at node 5)
Accepted flit rate average= 0.01075
	minimum = 0.004 (at node 9)
	maximum = 0.018 (at node 13)
Injected packet length average = 1
Accepted packet length average = 1
Total in-flight flits = 3 (3 measured)
latency change    = 0.000285423
throughput change = 0.127907
Class 0:
Packet latency average = 19.9943
	minimum = 7
	maximum = 37
Network latency average = 19.9943
	minimum = 7
	maximum = 37
Slowest packet = 971
Flit latency average = 19.9831
	minimum = 7
	maximum = 37
Slowest flit = 971
Fragmentation average = 0
	minimum = 0
	maximum = 0
Injected packet rate average = 0.0109375
	minimum = 0.007 (at node 6)
	maximum = 0.015 (at node 5)
Accepted packet rate average = 0.011125
	minimum = 0.007 (at node 9)
	maximum = 0.015 (at node 5)
Injected flit rate average = 0.0109375
	minimum = 0.007 (at node 6)
	maximum = 0.015 (at node 5)
Accepted flit rate average= 0.011125
	minimum = 0.007 (at node 9)
	maximum = 0.015 (at node 5)
Injected packet length average = 1
Accepted packet length average = 1
Total in-flight flits = 1 (1 measured)
latency change    = 0.00276222
throughput change = 0.0337079
Class 0:
Packet latency average = 19.5731
	minimum = 7
	maximum = 37
Network latency average = 19.5731
	minimum = 7
	maximum = 37
Slowest packet = 971
Flit latency average = 19.572
	minimum = 7
	maximum = 37
Slowest flit = 971
Fragmentation average = 0
	minimum = 0
	maximum = 0
Injected packet rate average = 0.01075
	minimum = 0.00866667 (at node 2)
	maximum = 0.0153333 (at node 5)
Accepted packet rate average = 0.0107083
	minimum = 0.008 (at node 2)
	maximum = 0.0153333 (at node 5)
Injected flit rate average = 0.01075
	minimum = 0.00866667 (at node 2)
	maximum = 0.0153333 (at node 5)
Accepted flit rate average= 0.0107083
	minimum = 0.008 (at node 2)
	maximum = 0.0153333 (at node 5)
Injected packet length average = 1
Accepted packet length average = 1
Total in-flight flits = 5 (5 measured)
latency change    = 0.0215157
throughput change = 0.0389105
Class 0:
Packet latency average = 19.747
	minimum = 7
	maximum = 37
Network latency average = 19.747
	minimum = 7
	maximum = 37
Slowest packet = 971
Flit latency average = 19.744
	minimum = 7
	maximum = 37
Slowest flit = 971
Fragmentation average = 0
	minimum = 0
	maximum = 0
Injected packet rate average = 0.0104375
	minimum = 0.008 (at node 6)
	maximum = 0.015 (at node 3)
Accepted packet rate average = 0.010375
	minimum = 0.008 (at node 9)
	maximum = 0.014 (at node 12)
Injected flit rate average = 0.0104375
	minimum = 0.008 (at node 6)
	maximum = 0.015 (at node 3)
Accepted flit rate average= 0.010375
	minimum = 0.008 (at node 9)
	maximum = 0.014 (at node 12)
Injected packet length average = 1
Accepted packet length average = 1
Total in-flight flits = 6 (6 measured)
latency change    = 0.00880281
throughput change = 0.0321285
Draining all recorded packets ...
Draining remaining packets ...
Time taken is 3525 cycles
Class 0:
Packet latency average = 20.4667
	minimum = 7
	maximum = 37
Network latency average = 20.4667
	minimum = 7
	maximum = 37
Slowest packet = 1287
Flit latency average = 20.4667
	minimum = 7
	maximum = 37
Slowest flit = 1287
Fragmentation average = 0
	minimum = 0
	maximum = 0
Injected packet rate average = 0.00975
	minimum = 0.002 (at node 11)
	maximum = 0.014 (at node 1)
Accepted packet rate average = 0.009375
	minimum = 0.002 (at node 14)
	maximum = 0.014 (at node 4)
Injected flit rate average = 0.00975
	minimum = 0.002 (at node 11)
	maximum = 0.014 (at node 1)
Accepted flit rate average= 0.009375
	minimum = 0.002 (at node 14)
	maximum = 0.014 (at node 4)
Injected packet length average = 1
Accepted packet length average = 1
Total in-flight flits = 3 (0 measured)
latency change    = 1
throughput change = 1
Class 0:
Packet latency average = 20.2121
	minimum = 7
	maximum = 37
Network latency average = 20.2121
	minimum = 7
	maximum = 37
Slowest packet = 1287
Flit latency average = 20.2121
	minimum = 7
	maximum = 37
Slowest flit = 1287
Fragmentation average = 0
	minimum = 0
	maximum = 0
Injected packet rate average = 0.0105625
	minimum = 0.006 (at node 5)
	maximum = 0.015 (at node 15)
Accepted packet rate average = 0.0103125
	minimum = 0.005 (at node 5)
	maximum = 0.015 (at node 15)
Injected flit rate average = 0.0105625
	minimum = 0.006 (at node 5)
	maximum = 0.015 (at node 15)
Accepted flit rate average= 0.0103125
	minimum = 0.005 (at node 5)
	maximum = 0.015 (at node 15)
Injected packet length average = 1
Accepted packet length average = 1
Total in-flight flits = 4 (0 measured)
latency change    = 0.0125937
throughput change = 0.0909091
Class 0:
Packet latency average = 17.3226
	minimum = 7
	maximum = 37
Network latency average = 17.3226
	minimum = 7
	maximum = 37
Slowest packet = 1465
Flit latency average = 17.3226
	minimum = 7
	maximum = 37
Slowest flit = 1465
Fragmentation average = 0
	minimum = 0
	maximum = 0
Injected packet rate average = 0.0115
	minimum = 0 (at node 7)
	maximum = 0.022 (at node 0)
Accepted packet rate average = 0.011625
	minimum = 0 (at node 7)
	maximum = 0.022 (at node 0)
Injected flit rate average = 0.0115
	minimum = 0 (at node 7)
	maximum = 0.022 (at node 0)
Accepted flit rate average= 0.011625
	minimum = 0 (at node 7)
	maximum = 0.022 (at node 0)
Injected packet length average = 1
Accepted packet length average = 1
Total in-flight flits = 3 (0 measured)
latency change    = 0.166808
throughput change = 0.112903
Warmed up ...Time used is 1500 cycles
Class 0:
Packet latency average = 18.3043
	minimum = 7
	maximum = 37
Network latency average = 18.3043
	minimum = 7
	maximum = 37
Slowest packet = 1549
Flit latency average = 18.6842
	minimum = 7
	maximum = 37
Slowest flit = 1543
Fragmentation average = 0
	minimum = 0
	maximum = 0
Injected packet rate average = 0.01175
	minimum = 0.004 (at node 1)
	maximum = 0.022 (at node 0)
Accepted packet rate average = 0.011875
	minimum = 0.004 (at node 4)
	maximum = 0.022 (at node 0)
Injected flit rate average = 0.01175
	minimum = 0.004 (at node 1)
	maximum = 0.022 (at node 0)
Accepted flit rate average= 0.011875
	minimum = 0.004 (at node 4)
	maximum = 0.022 (at node 0)
Injected packet length average = 1
Accepted packet length average = 1
Total in-flight flits = 2 (2 measured)
latency change    = 0.0536357
throughput change = 0.0210526
Class 0:
Packet latency average = 18.9653
	minimum = 7
	maximum = 37
Network latency average = 18.9653
	minimum = 7
	maximum = 37
Slowest packet = 1549
Flit latency average = 19.1591
	minimum = 7
	maximum = 37
Slowest flit = 1543
Fragmentation average = 0
	minimum = 0
	maximum = 0
Injected packet rate average = 0.011125
	minimum = 0.005 (at node 3)
	maximum = 0.019 (at node 14)
Accepted packet rate average = 0.011
	minimum = 0.005 (at node 4)
	maximum = 0.019 (at node 11)
Injected flit rate average = 0.011125
	minimum = 0.005 (at node 3)
	maximum = 0.019 (at node 14)
Accepted flit rate average= 0.011
	minimum = 0.005 (at node 4)
	maximum = 0.019 (at node 11)
Injected packet length average = 1
Accepted packet length average = 1
Total in-flight flits = 5 (5 measured)
latency change    = 0.0348515
throughput change = 0.0795455
Class 0:
Packet latency average = 19.6592
	minimum = 7
	maximum = 37
Network latency average = 19.6592
	minimum = 7
	maximum = 37
Slowest packet = 1549
Flit latency average = 19.7778
	minimum = 7
	maximum = 37
Slowest flit = 1543
Fragmentation average = 0
	minimum = 0
	maximum = 0
Injected packet rate average = 0.0113333
	minimum = 0.00466667 (at node 1)
	maximum = 0.018 (at node 6)
Accepted packet rate average = 0.01125
	minimum = 0.00466667 (at node 4)
	maximum = 0.018 (at node 9)
Injected flit rate average = 0.0113333
	minimum = 0.00466667 (at node 1)
	maximum = 0.018 (at node 6)
Accepted flit rate average= 0.01125
	minimum = 0.00466667 (at node 4)
	maximum = 0.018 (at node 9)
Injected packet length average = 1
Accepted packet length average = 1
Total in-flight flits = 5 (5 measured)
latency change    = 0.0352944
throughput change = 0.0222222
Class 0:
Packet latency average = 19.4791
	minimum = 7
	maximum = 37
Network latency average = 19.4791
	minimum = 7
	maximum = 37
Slowest packet = 1549
Flit latency average = 19.5691
	minimum = 7
	maximum = 37
Slowest flit = 1543
Fragmentation average = 0
	minimum = 0
	maximum = 0
Injected packet rate average = 0.0113125
	minimum = 0.0065 (at node 9)
	maximum = 0.0155 (at node 6)
Accepted packet rate average = 0.0113125
	minimum = 0.0065 (at node 6)
	maximum = 0.0155 (at node 9)
Injected flit rate average = 0.0113125
	minimum = 0.0065 (at node 9)
	maximum = 0.0155 (at node 6)
Accepted flit rate average= 0.0113125
	minimum = 0.0065 (at node 6)
	maximum = 0.0155 (at node 9)
Injected packet length average = 1
Accepted packet length average = 1
Total in-flight flits = 3 (3 measured)
latency change    = 0.00924413
throughput change = 0.00552486
Class 0:
Packet latency average = 19.4706
	minimum = 7
	maximum = 37
Network latency average = 19.4706
	minimum = 7
	maximum = 37
Slowest packet = 1549
Flit latency average = 19.5438
	minimum = 7
	maximum = 37
Slowest flit = 1543
Fragmentation average = 0
	minimum = 0
	maximum = 0
Injected packet rate average = 0.011075
	minimum = 0.0056 (at node 9)
	maximum = 0.0144 (at node 6)
Accepted packet rate average = 0.011125
	minimum = 0.0056 (at node 6)
	maximum = 0.0144 (at node 9)
Injected flit rate average = 0.011075
	minimum = 0.0056 (at node 9)
	maximum = 0.0144 (at node 6)
Accepted flit rate average= 0.011125
	minimum = 0.0056 (at node 6)
	maximum = 0.0144 (at node 9)
Injected packet length average = 1
Accepted packet length average = 1
Total in-flight flits = 1 (1 measured)
latency change    = 0.000437604
throughput change = 0.0168539
Draining all recorded packets ...
Draining remaining packets ...
Time taken is 4013 cycles
Class 0:
Packet latency average = 19.4638
	minimum = 7
	maximum = 37
Network latency average = 19.4638
	minimum = 7
	maximum = 37
Slowest packet = 2016
Flit latency average = 19.4638
	minimum = 7
	maximum = 37
Slowest flit = 2016
Fragmentation average = 0
	minimum = 0
	maximum = 0
Injected packet rate average = 0.009125
	minimum = 0.002 (at node 10)
	maximum = 0.014 (at node 6)
Accepted packet rate average = 0.008625
	minimum = 0.002 (at node 10)
	maximum = 0.012 (at node 0)
Injected flit rate average = 0.009125
	minimum = 0.002 (at node 10)
	maximum = 0.014 (at node 6)
Accepted flit rate average= 0.008625
	minimum = 0.002 (at node 10)
	maximum = 0.012 (at node 0)
Injected packet length average = 1
Accepted packet length average = 1
Total in-flight flits = 4 (0 measured)
latency change    = 1
throughput change = 1
Class 0:
Packet latency average = 19.5532
	minimum = 7
	maximum = 37
Network latency average = 19.5532
	minimum = 7
	maximum = 37
Slowest packet = 2016
Flit latency average = 19.5532
	minimum = 7
	maximum = 37
Slowest flit = 2016
Fragmentation average = 0
	minimum = 0
	maximum = 0
Injected packet rate average = 0.009
	minimum = 0.003 (at node 10)
	maximum = 0.013 (at node 0)
Accepted packet rate average = 0.0088125
	minimum = 0.003 (at node 10)
	maximum = 0.013 (at node 0)
Injected flit rate average = 0.009
	minimum = 0.003 (at node 10)
	maximum = 0.013 (at node 0)
Accepted flit rate average= 0.0088125
	minimum = 0.003 (at node 10)
	maximum = 0.013 (at node 0)
Injected packet length average = 1
Accepted packet length average = 1
Total in-flight flits = 3 (0 measured)
latency change    = 0.00457334
throughput change = 0.0212766
Class 0:
Packet latency average = 19.6374
	minimum = 7
	maximum = 37
Network latency average = 19.6374
	minimum = 7
	maximum = 37
Slowest packet = 2137
Flit latency average = 19.6374
	minimum = 7
	maximum = 37
Slowest flit = 2137
Fragmentation average = 0
	minimum = 0
	maximum = 0
Injected packet rate average = 0.0115
	minimum = 0.004 (at node 6)
	maximum = 0.024 (at node 14)
Accepted packet rate average = 0.011375
	minimum = 0.004 (at node 9)
	maximum = 0.02 (at node 6)
Injected flit rate average = 0.0115
	minimum = 0.004 (at node 6)
	maximum = 0.024 (at node 14)
Accepted flit rate average= 0.011375
	minimum = 0.004 (at node 9)
	maximum = 0.02 (at node 6)
Injected packet length average = 1
Accepted packet length average = 1
Total in-flight flits = 4 (0 measured)
latency change    = 0.00428628
throughput change = 0.225275
Warmed up ...Time used is 1500 cycles
Class 0:
Packet latency average = 20.0667
	minimum = 7
	maximum = 37
Network latency average = 20.0667
	minimum = 7
	maximum = 37
Slowest packet = 2227
Flit latency average = 20.038
	minimum = 7
	maximum = 37
Slowest flit = 2227
Fragmentation average = 0
	minimum = 0
	maximum = 0
Injected packet rate average = 0.009625
	minimum = 0.004 (at node 8)
	maximum = 0.016 (at node 4)
Accepted packet rate average = 0.009875
	minimum = 0.004 (at node 2)
	maximum = 0.016 (at node 7)
Injected flit rate average = 0.009625
	minimum = 0.004 (at node 8)
	maximum = 0.016 (at node 4)
Accepted flit rate average= 0.009875
	minimum = 0.004 (at node 2)
	maximum = 0.016 (at node 7)
Injected packet length average = 1
Accepted packet length average = 1
Total in-flight flits = 2 (2 measured)
latency change    = 0.0213939
throughput change = 0.151899
Class 0:
Packet latency average = 18.7881
	minimum = 7
	maximum = 37
Network latency average = 18.7881
	minimum = 7
	maximum = 37
Slowest packet = 2227
Flit latency average = 18.8065
	minimum = 7
	maximum = 37
Slowest flit = 2227
Fragmentation average = 0
	minimum = 0
	maximum = 0
Injected packet rate average = 0.0096875
	minimum = 0.005 (at node 3)
	maximum = 0.015 (at node 5)
Accepted packet rate average = 0.0096875
	minimum = 0.005 (at node 2)
	maximum = 0.015 (at node 5)
Injected flit rate average = 0.0096875
	minimum = 0.005 (at node 3)
	maximum = 0.015 (at node 5)
Accepted flit rate average= 0.0096875
	minimum = 0.005 (at node 2)
	maximum = 0.015 (at node 5)
Injected packet length average = 1
Accepted packet length average = 1
Total in-flight flits = 4 (4 measured)
latency change    = 0.0680531
throughput change = 0.0193548
Class 0:
Packet latency average = 19.193
	minimum = 7
	maximum = 37
Network latency average = 19.193
	minimum = 7
	maximum = 37
Slowest packet = 2227
Flit latency average = 19.1983
	minimum = 7
	maximum = 37
Slowest flit = 2227
Fragmentation average = 0
	minimum = 0
	maximum = 0
Injected packet rate average = 0.00975
	minimum = 0.006 (at node 3)
	maximum = 0.0126667 (at node 2)
Accepted packet rate average = 0.00966667
	minimum = 0.006 (at node 2)
	maximum = 0.0126667 (at node 5)
Injected flit rate average = 0.00975
	minimum = 0.006 (at node 3)
	maximum = 0.0126667 (at node 2)
Accepted flit rate average= 0.00966667
	minimum = 0.006 (at node 2)
	maximum = 0.0126667 (at node 5)
Injected packet length average = 1
Accepted packet length average = 1
Total in-flight flits = 6 (6 measured)
latency change    = 0.0210964
throughput change = 0.00215517
Class 0:
Packet latency average = 19.0625
	minimum = 7
	maximum = 37
Network latency average = 19.0625
	minimum = 7
	maximum = 37
Slowest packet = 2227
Flit latency average = 19.0679
	minimum = 7
	maximum = 37
Slowest flit = 2227
Fragmentation average = 0
	minimum = 0
	maximum = 0
Injected packet rate average = 0.010125
	minimum = 0.0065 (at node 3)
	maximum = 0.012 (at node 1)
Accepted packet rate average = 0.010125
	minimum = 0.0065 (at node 12)
	maximum = 0.012 (at node 1)
Injected flit rate average = 0.010125
	minimum = 0.0065 (at node 3)
	maximum = 0.012 (at node 1)
Accepted flit rate average= 0.010125
	minimum = 0.0065 (at node 12)
	maximum = 0.012 (at node 1)
Injected packet length average = 1
Accepted packet length average = 1
Total in-flight flits = 4 (4 measured)
latency change    = 0.00684498
throughput change = 0.0452675
Class 0:
Packet latency average = 18.9951
	minimum = 7
	maximum = 37
Network latency average = 18.9951
	minimum = 7
	maximum = 37
Slowest packet = 2227
Flit latency average = 19
	minimum = 7
	maximum = 37
Slowest flit = 2227
Fragmentation average = 0
	minimum = 0
	maximum = 0
Injected packet rate average = 0.01035
	minimum = 0.008 (at node 14)
	maximum = 0.0128 (at node 1)
Accepted packet rate average = 0.010375
	minimum = 0.008 (at node 12)
	maximum = 0.0124 (at node 4)
Injected flit rate average = 0.01035
	minimum = 0.008 (at node 14)
	maximum = 0.0128 (at node 1)
Accepted flit rate average= 0.010375
	minimum = 0.008 (at node 12)
	maximum = 0.0124 (at node 4)
Injected packet length average = 1
Accepted packet length average = 1
Total in-flight flits = 3 (3 measured)
latency change    = 0.0035465
throughput change = 0.0240964
Draining all recorded packets ...
Draining remaining packets ...
Time taken is 4017 cycles
Class 0:
Packet latency average = 21.7297
	minimum = 7
	maximum = 37
Network latency average = 21.7297
	minimum = 7
	maximum = 37
Slowest packet = 2649
Flit latency average = 21.7297
	minimum = 7
	maximum = 37
Slowest flit = 2649
Fragmentation average = 0
	minimum = 0
	maximum = 0
Injected packet rate average = 0.009375
	minimum = 0.004 (at node 7)
	maximum = 0.016 (at node 3)
Accepted packet rate average = 0.00925
	minimum = 0.004 (at node 10)
	maximum = 0.016 (at node 3)
Injected flit rate average = 0.009375
	minimum = 0.004 (at node 7)
	maximum = 0.016 (at node 3)
Accepted flit rate average= 0.00925
	minimum = 0.004 (at node 10)
	maximum = 0.016 (at node 3)
Injected packet length average = 1
Accepted packet length average = 1
Total in-flight flits = 1 (0 measured)
latency change    = 1
throughput change = 1
Class 0:
Packet latency average = 20.4357
	minimum = 7
	maximum = 37
Network latency average = 20.4357
	minimum = 7
	maximum = 37
Slowest packet = 2649
Flit latency average = 20.4357
	minimum = 7
	maximum = 37
Slowest flit = 2649
Fragmentation average = 0
	minimum = 0
	maximum = 0
Injected packet rate average = 0.0089375
	minimum = 0.002 (at node 7)
	maximum = 0.015 (at node 8)
Accepted packet rate average = 0.00875
	minimum = 0.002 (at node 13)
	maximum = 0.015 (at node 2)
Injected flit rate average = 0.0089375
	minimum = 0.002 (at node 7)
	maximum = 0.015 (at node 8)
Accepted flit rate average= 0.00875
	minimum = 0.002 (at node 13)
	maximum = 0.015 (at node 2)
Injected packet length average = 1
Accepted packet length average = 1
Total in-flight flits = 3 (0 measured)
latency change    = 0.0633213
throughput change = 0.0571429
Class 0:
Packet latency average = 19.3288
	minimum = 7
	maximum = 37
Network latency average = 19.3288
	minimum = 7
	maximum = 37
Slowest packet = 2788
Flit latency average = 19.3288
	minimum = 7
	maximum = 37
Slowest flit = 2788
Fragmentation average = 0
	minimum = 0
	maximum = 0
Injected packet rate average = 0.00925
	minimum = 0.002 (at node 8)
	maximum = 0.02 (at node 6)
Accepted packet rate average = 0.009125
	minimum = 0.002 (at node 2)
	maximum = 0.018 (at node 9)
Injected flit rate average = 0.00925
	minimum = 0.002 (at node 8)
	maximum = 0.02 (at node 6)
Accepted flit rate average= 0.009125
	minimum = 0.002 (at node 2)
	maximum = 0.018 (at node 9)
Injected packet length average = 1
Accepted packet length average = 1
Total in-flight flits = 4 (0 measured)
latency change    = 0.0572694
throughput change = 0.0410959
Warmed up ...Time used is 1500 cycles
Class 0:
Packet latency average = 18.0811
	minimum = 7
	maximum = 37
Network latency average = 18.0811
	minimum = 7
	maximum = 37
Slowest packet = 2883
Flit latency average = 18.0256
	minimum = 7
	maximum = 37
Slowest flit = 2883
Fragmentation average = 0
	minimum = 0
	maximum = 0
Injected packet rate average = 0.00975
	minimum = 0.004 (at node 3)
	maximum = 0.016 (at node 0)
Accepted packet rate average = 0.00975
	minimum = 0.004 (at node 12)
	maximum = 0.016 (at node 0)
Injected flit rate average = 0.00975
	minimum = 0.004 (at node 3)
	maximum = 0.016 (at node 0)
Accepted flit rate average= 0.00975
	minimum = 0.004 (at node 12)
	maximum = 0.016 (at node 0)
Injected packet length average = 1
Accepted packet length average = 1
Total in-flight flits = 4 (4 measured)
latency change    = 0.0690051
throughput change = 0.0641026
Class 0:
Packet latency average = 18.9789
	minimum = 7
	maximum = 37
Network latency average = 18.9789
	minimum = 7
	maximum = 37
Slowest packet = 2883
Flit latency average = 18.9247
	minimum = 7
	maximum = 37
Slowest flit = 2883
Fragmentation average = 0
	minimum = 0
	maximum = 0
Injected packet rate average = 0.008875
	minimum = 0.005 (at node 10)
	maximum = 0.015 (at node 0)
Accepted packet rate average = 0.009125
	minimum = 0.006 (at node 10)
	maximum = 0.015 (at node 0)
Injected flit rate average = 0.008875
	minimum = 0.005 (at node 10)
	maximum = 0.015 (at node 0)
Accepted flit rate average= 0.009125
	minimum = 0.006 (at node 10)
	maximum = 0.015 (at node 0)
Injected packet length average = 1
Accepted packet length average = 1
Total in-flight flits = 0 (0 measured)
latency change    = 0.0473048
throughput change = 0.0684932
Class 0:
Packet latency average = 19.7366
	minimum = 7
	maximum = 37
Network latency average = 19.7366
	minimum = 7
	maximum = 37
Slowest packet = 2883
Flit latency average = 19.6842
	minimum = 7
	maximum = 37
Slowest flit = 2883
Fragmentation average = 0
	minimum = 0
	maximum = 0
Injected packet rate average = 0.00866667
	minimum = 0.00466667 (at node 10)
	maximum = 0.0126667 (at node 2)
Accepted packet rate average = 0.00870833
	minimum = 0.00533333 (at node 10)
	maximum = 0.012 (at node 8)
Injected flit rate average = 0.00866667
	minimum = 0.00466667 (at node 10)
	maximum = 0.0126667 (at node 2)
Accepted flit rate average= 0.00870833
	minimum = 0.00533333 (at node 10)
	maximum = 0.012 (at node 8)
Injected packet length average = 1
Accepted packet length average = 1
Total in-flight flits = 3 (3 measured)
latency change    = 0.0383912
throughput change = 0.0478469
Class 0:
Packet latency average = 20.6307
	minimum = 7
	maximum = 37
Network latency average = 20.6307
	minimum = 7
	maximum = 37
Slowest packet = 2883
Flit latency average = 20.5808
	minimum = 7
	maximum = 37
Slowest flit = 2883
Fragmentation average = 0
	minimum = 0
	maximum = 0
Injected packet rate average = 0.00909375
	minimum = 0.0045 (at node 10)
	maximum = 0.014 (at node 12)
Accepted packet rate average = 0.00909375
	minimum = 0.005 (at node 10)
	maximum = 0.0135 (at node 3)
Injected flit rate average = 0.00909375
	minimum = 0.0045 (at node 10)
	maximum = 0.014 (at node 12)
Accepted flit rate average= 0.00909375
	minimum = 0.005 (at node 10)
	maximum = 0.0135 (at node 3)
Injected packet length average = 1
Accepted packet length average = 1
Total in-flight flits = 4 (4 measured)
latency change    = 0.0433373
throughput change = 0.0423826
Class 0:
Packet latency average = 20.3753
	minimum = 7
	maximum = 37
Network latency average = 20.3753
	minimum = 7
	maximum = 37
Slowest packet = 2883
Flit latency average = 20.3388
	minimum = 7
	maximum = 37
Slowest flit = 2883
Fragmentation average = 0
	minimum = 0
	maximum = 0
Injected packet rate average = 0.009225
	minimum = 0.0064 (at node 10)
	maximum = 0.014 (at node 12)
Accepted packet rate average = 0.009225
	minimum = 0.0068 (at node 10)
	maximum = 0.014 (at node 3)
Injected flit rate average = 0.009225
	minimum = 0.0064 (at node 10)
	maximum = 0.014 (at node 12)
Accepted flit rate average= 0.009225
	minimum = 0.0068 (at node 10)
	maximum = 0.014 (at node 3)
Injected packet length average = 1
Accepted packet length average = 1
Total in-flight flits = 4 (4 measured)
latency change    = 0.0125308
throughput change = 0.0142276
Draining all recorded packets ...
Draining remaining packets ...
Time taken is 4039 cycles
Class 0:
Packet latency average = 18.6947
	minimum = 7
	maximum = 38
Network latency average = 18.6947
	minimum = 7
	maximum = 38
Slowest packet = 3230
Flit latency average = 18.6947
	minimum = 7
	maximum = 38
Slowest flit = 3230
Fragmentation average = 0
	minimum = 0
	maximum = 0
Injected packet rate average = 0.01225
	minimum = 0.006 (at node 9)
	maximum = 0.024 (at node 15)
Accepted packet rate average = 0.011875
	minimum = 0.006 (at node 6)
	maximum = 0.024 (at node 15)
Injected flit rate average = 0.01225
	minimum = 0.006 (at node 9)
	maximum = 0.024 (at node 15)
Accepted flit rate average= 0.011875
	minimum = 0.006 (at node 6)
	maximum = 0.024 (at node 15)
Injected packet length average = 1
Accepted packet length average = 1
Total in-flight flits = 3 (0 measured)
latency change    = 1
throughput change = 1
Class 0:
Packet latency average = 19.2655
	minimum = 7
	maximum = 38
Network latency average = 19.2655
	minimum = 7
	maximum = 38
Slowest packet = 3230
Flit latency average = 19.2655
	minimum = 7
	maximum = 38
Slowest flit = 3230
Fragmentation average = 0
	minimum = 0
	maximum = 0
Injected packet rate average = 0.011375
	minimum = 0.007 (at node 9)
	maximum = 0.017 (at node 3)
Accepted packet rate average = 0.0110625
	minimum = 0.007 (at node 6)
	maximum = 0.015 (at node 5)
Injected flit rate average = 0.011375
	minimum = 0.007 (at node 9)
	maximum = 0.017 (at node 3)
Accepted flit rate average= 0.0110625
	minimum = 0.007 (at node 6)
	maximum = 0.015 (at node 5)
Injected packet length average = 1
Accepted packet length average = 1
Total in-flight flits = 5 (0 measured)
latency change    = 0.029628
throughput change = 0.0734463
Class 0:
Packet latency average = 19.7059
	minimum = 7
	maximum = 37
Network latency average = 19.7059
	minimum = 7
	maximum = 37
Slowest packet = 3406
Flit latency average = 19.7059
	minimum = 7
	maximum = 37
Slowest flit = 3406
Fragmentation average = 0
	minimum = 0
	maximum = 0
Injected packet rate average = 0.01025
	minimum = 0.004 (at node 9)
	maximum = 0.022 (at node 7)
Accepted packet rate average = 0.010625
	minimum = 0.004 (at node 6)
	maximum = 0.022 (at node 13)
Injected flit rate average = 0.01025
	minimum = 0.004 (at node 9)
	maximum = 0.022 (at node 7)
Accepted flit rate average= 0.010625
	minimum = 0.004 (at node 6)
	maximum = 0.022 (at node 13)
Injected packet length average = 1
Accepted packet length average = 1
Total in-flight flits = 2 (0 measured)
latency change    = 0.0223459
throughput change = 0.0411765
Warmed up ...Time used is 1500 cycles
Class 0:
Packet latency average = 18.8415
	minimum = 7
	maximum = 38
Network latency average = 18.8415
	minimum = 7
	maximum = 38
Slowest packet = 3499
Flit latency average = 19.0357
	minimum = 7
	maximum = 38
Slowest flit = 3499
Fragmentation average = 0
	minimum = 0
	maximum = 0
Injected packet rate average = 0.010375
	minimum = 0.004 (at node 12)
	maximum = 0.02 (at node 1)
Accepted packet rate average = 0.0105
	minimum = 0.004 (at node 3)
	maximum = 0.02 (at node 4)
Injected flit rate average = 0.010375
	minimum = 0.004 (at node 12)
	maximum = 0.02 (at node 1)
Accepted flit rate average= 0.0105
	minimum = 0.004 (at node 3)
	maximum = 0.02 (at node 4)
Injected packet length average = 1
Accepted packet length average = 1
Total in-flight flits = 1 (1 measured)
latency change    = 0.0458785
throughput change = 0.0119048
Class 0:
Packet latency average = 19.3188
	minimum = 7
	maximum = 38
Network latency average = 19.3188
	minimum = 7
	maximum = 38
Slowest packet = 3499
Flit latency average = 19.4136
	minimum = 7
	maximum = 38
Slowest flit = 3499
Fragmentation average = 0
	minimum = 0
	maximum = 0
Injected packet rate average = 0.0100625
	minimum = 0.004 (at node 10)
	maximum = 0.016 (at node 1)
Accepted packet rate average = 0.010125
	minimum = 0.004 (at node 10)
	maximum = 0.016 (at node 4)
Injected flit rate average = 0.0100625
	minimum = 0.004 (at node 10)
	maximum = 0.016 (at node 1)
Accepted flit rate average= 0.010125
	minimum = 0.004 (at node 10)
	maximum = 0.016 (at node 4)
Injected packet length average = 1
Accepted packet length average = 1
Total in-flight flits = 1 (1 measured)
latency change    = 0.0247059
throughput change = 0.037037
Class 0:
Packet latency average = 19.3211
	minimum = 7
	maximum = 38
Network latency average = 19.3211
	minimum = 7
	maximum = 38
Slowest packet = 3499
Flit latency average = 19.3831
	minimum = 7
	maximum = 38
Slowest flit = 3499
Fragmentation average = 0
	minimum = 0
	maximum = 0
Injected packet rate average = 0.0104167
	minimum = 0.00666667 (at node 2)
	maximum = 0.016 (at node 13)
Accepted packet rate average = 0.0103333
	minimum = 0.00666667 (at node 10)
	maximum = 0.0153333 (at node 7)
Injected flit rate average = 0.0104167
	minimum = 0.00666667 (at node 2)
	maximum = 0.016 (at node 13)
Accepted flit rate average= 0.0103333
	minimum = 0.00666667 (at node 10)
	maximum = 0.0153333 (at node 7)
Injected packet length average = 1
Accepted packet length average = 1
Total in-flight flits = 4 (4 measured)
latency change    = 0.000123606
throughput change = 0.0201613
Draining all recorded packets ...
Draining remaining packets ...
Time taken is 3040 cycles
Class 0:
Packet latency average = 20.0556
	minimum = 7
	maximum = 37
Network latency average = 20.0556
	minimum = 7
	maximum = 37
Slowest packet = 3748
Flit latency average = 20.0556
	minimum = 7
	maximum = 37
Slowest flit = 3748
Fragmentation average = 0
	minimum = 0
	maximum = 0
Injected packet rate average = 0.009625
	minimum = 0.002 (at node 1)
	maximum = 0.016 (at node 8)
Accepted packet rate average = 0.009
	minimum = 0.002 (at node 4)
	maximum = 0.014 (at node 2)
Injected flit rate average = 0.009625
	minimum = 0.002 (at node 1)
	maximum = 0.016 (at node 8)
Accepted flit rate average= 0.009
	minimum = 0.002 (at node 4)
	maximum = 0.014 (at node 2)
Injected packet length average = 1
Accepted packet length average = 1
Total in-flight flits = 5 (0 measured)
latency change    = 1
throughput change = 1
Class 0:
Packet latency average = 19.963
	minimum = 7
	maximum = 37
Network latency average = 19.963
	minimum = 7
	maximum = 37
Slowest packet = 3748
Flit latency average = 19.963
	minimum = 7
	maximum = 37
Slowest flit = 3748
Fragmentation average = 0
	minimum = 0
	maximum = 0
Injected packet rate average = 0.0086875
	minimum = 0.004 (at node 0)
	maximum = 0.014 (at node 8)
Accepted packet rate average = 0.0084375
	minimum = 0.004 (at node 0)
	maximum = 0.014 (at node 2)
Injected flit rate average = 0.0086875
	minimum = 0.004 (at node 0)
	maximum = 0.014 (at node 8)
Accepted flit rate average= 0.0084375
	minimum = 0.004 (at node 0)
	maximum = 0.014 (at node 2)
Injected packet length average = 1
Accepted packet length average = 1
Total in-flight flits = 4 (0 measured)
latency change    = 0.00463822
throughput change = 0.0666667
Class 0:
Packet latency average = 19.913
	minimum = 7
	maximum = 38
Network latency average = 19.913
	minimum = 7
	maximum = 38
Slowest packet = 3927
Flit latency average = 19.913
	minimum = 7
	maximum = 38
Slowest flit = 3927
Fragmentation average = 0
	minimum = 0
	maximum = 0
Injected packet rate average = 0.0085
	minimum = 0.002 (at node 14)
	maximum = 0.014 (at node 11)
Accepted packet rate average = 0.008625
	minimum = 0.004 (at node 5)
	maximum = 0.014 (at node 15)
Injected flit rate average = 0.0085
	minimum = 0.002 (at node 14)
	maximum = 0.014 (at node 11)
Accepted flit rate average= 0.008625
	minimum = 0.004 (at node 5)
	maximum = 0.014 (at node 15)
Injected packet length average = 1
Accepted packet length average = 1
Total in-flight flits = 3 (0 measured)
latency change    = 0.00250687
throughput change = 0.0217391
Warmed up ...Time used is 1500 cycles
Class 0:
Packet latency average = 19.7273
	minimum = 7
	maximum = 37
Network latency average = 19.7273
	minimum = 7
	maximum = 37
Slowest packet = 3959
Flit latency average = 20
	minimum = 7
	maximum = 37
Slowest flit = 3948
Fragmentation average = 0
	minimum = 0
	maximum = 0
Injected packet rate average = 0.00975
	minimum = 0.004 (at node 4)
	maximum = 0.016 (at node 1)
Accepted packet rate average = 0.01
	minimum = 0.004 (at node 1)
	maximum = 0.016 (at node 4)
Injected flit rate average = 0.00975
	minimum = 0.004 (at node 4)
	maximum = 0.016 (at node 1)
Accepted flit rate average= 0.01
	minimum = 0.004 (at node 1)
	maximum = 0.016 (at node 4)
Injected packet length average = 1
Accepted packet length average = 1
Total in-flight flits = 1 (1 measured)
latency change    = 0.00941695
throughput change = 0.1375
Class 0:
Packet latency average = 20.7566
	minimum = 7
	maximum = 38
Network latency average = 20.7566
	minimum = 7
	maximum = 38
Slowest packet = 4097
Flit latency average = 20.8774
	minimum = 7
	maximum = 38
Slowest flit = 4097
Fragmentation average = 0
	minimum = 0
	maximum = 0
Injected packet rate average = 0.00975
	minimum = 0.003 (at node 5)
	maximum = 0.016 (at node 12)
Accepted packet rate average = 0.0096875
	minimum = 0.003 (at node 5)
	maximum = 0.015 (at node 3)
Injected flit rate average = 0.00975
	minimum = 0.003 (at node 5)
	maximum = 0.016 (at node 12)
Accepted flit rate average= 0.0096875
	minimum = 0.003 (at node 5)
	maximum = 0.015 (at node 3)
Injected packet length average = 1
Accepted packet length average = 1
Total in-flight flits = 4 (4 measured)
latency change    = 0.0495894
throughput change = 0.0322581
Class 0:
Packet latency average = 20.4708
	minimum = 7
	maximum = 39
Network latency average = 20.4708
	minimum = 7
	maximum = 39
Slowest packet = 4116
Flit latency average = 20.5514
	minimum = 7
	maximum = 39
Slowest flit = 4116
Fragmentation average = 0
	minimum = 0
	maximum = 0
Injected packet rate average = 0.0102083
	minimum = 0.004 (at node 5)
	maximum = 0.0126667 (at node 13)
Accepted packet rate average = 0.010125
	minimum = 0.004 (at node 5)
	maximum = 0.0126667 (at node 7)
Injected flit rate average = 0.0102083
	minimum = 0.004 (at node 5)
	maximum = 0.0126667 (at node 13)
Accepted flit rate average= 0.010125
	minimum = 0.004 (at node 5)
	maximum = 0.0126667 (at node 7)
Injected packet length average = 1
Accepted packet length average = 1
Total in-flight flits = 5 (5 measured)
latency change    = 0.0139587
throughput change = 0.0432099
Class 0:
Packet latency average = 20.1896
	minimum = 7
	maximum = 39
Network latency average = 20.1896
	minimum = 7
	maximum = 39
Slowest packet = 4116
Flit latency average = 20.2515
	minimum = 7
	maximum = 39
Slowest flit = 4116
Fragmentation average = 0
	minimum = 0
	maximum = 0
Injected packet rate average = 0.0103125
	minimum = 0.0045 (at node 5)
	maximum = 0.013 (at node 15)
Accepted packet rate average = 0.0103125
	minimum = 0.0045 (at node 5)
	maximum = 0.013 (at node 12)
Injected flit rate average = 0.0103125
	minimum = 0.0045 (at node 5)
	maximum = 0.013 (at node 15)
Accepted flit rate average= 0.0103125
	minimum = 0.0045 (at node 5)
	maximum = 0.013 (at node 12)
Injected packet length average = 1
Accepted packet length average = 1
Total in-flight flits = 3 (3 measured)
latency change    = 0.0139295
throughput change = 0.0181818
Draining all recorded packets ...
Draining remaining packets ...
Time taken is 3563 cycles
Class 0:
Packet latency average = 18.4474
	minimum = 7
	maximum = 37
Network latency average = 18.4474
	minimum = 7
	maximum = 37
Slowest packet = 4298
Flit latency average = 18.4474
	minimum = 7
	maximum = 37
Slowest flit = 4298
Fragmentation average = 0
	minimum = 0
	maximum = 0
Injected packet rate average = 0.009875
	minimum = 0.006 (at node 1)
	maximum = 0.016 (at node 10)
Accepted packet rate average = 0.0095
	minimum = 0.004 (at node 6)
	maximum = 0.016 (at node 10)
Injected flit rate average = 0.009875
	minimum = 0.006 (at node 1)
	maximum = 0.016 (at node 10)
Accepted flit rate average= 0.0095
	minimum = 0.004 (at node 6)
	maximum = 0.016 (at node 10)
Injected packet length average = 1
Accepted packet length average = 1
Total in-flight flits = 3 (0 measured)
latency change    = 1
throughput change = 1
Class 0:
Packet latency average = 19.1824
	minimum = 7
	maximum = 38
Network latency average = 19.1824
	minimum = 7
	maximum = 38
Slowest packet = 4416
Flit latency average = 19.1824
	minimum = 7
	maximum = 38
Slowest flit = 4416
Fragmentation average = 0
	minimum = 0
	maximum = 0
Injected packet rate average = 0.0108125
	minimum = 0.007 (at node 8)
	maximum = 0.014 (at node 9)
Accepted packet rate average = 0.010625
	minimum = 0.007 (at node 2)
	maximum = 0.014 (at node 6)
Injected flit rate average = 0.0108125
	minimum = 0.007 (at node 8)
	maximum = 0.014 (at node 9)
Accepted flit rate average= 0.010625
	minimum = 0.007 (at node 2)
	maximum = 0.014 (at node 6)
Injected packet length average = 1
Accepted packet length average = 1
Total in-flight flits = 3 (0 measured)
latency change    = 0.0383157
throughput change = 0.105882
Class 0:
Packet latency average = 19.8049
	minimum = 7
	maximum = 37
Network latency average = 19.8049
	minimum = 7
	maximum = 37
Slowest packet = 4455
Flit latency average = 19.8049
	minimum = 7
	maximum = 37
Slowest flit = 4455
Fragmentation average = 0
	minimum = 0
	maximum = 0
Injected packet rate average = 0.009875
	minimum = 0 (at node 9)
	maximum = 0.016 (at node 3)
Accepted packet rate average = 0.01025
	minimum = 0 (at node 6)
	maximum = 0.016 (at node 2)
Injected flit rate average = 0.009875
	minimum = 0 (at node 9)
	maximum = 0.016 (at node 3)
Accepted flit rate average= 0.01025
	minimum = 0 (at node 6)
	maximum = 0.016 (at node 2)
Injected packet length average = 1
Accepted packet length average = 1
Total in-flight flits = 0 (0 measured)
latency change    = 0.0314329
throughput change = 0.0365854
Warmed up ...Time used is 1500 cycles
Class 0:
Packet latency average = 18.1443
	minimum = 7
	maximum = 37
Network latency average = 18.1443
	minimum = 7
	maximum = 37
Slowest packet = 4540
Flit latency average = 18.1443
	minimum = 7
	maximum = 37
Slowest flit = 4540
Fragmentation average = 0
	minimum = 0
	maximum = 0
Injected packet rate average = 0.0125
	minimum = 0.004 (at node 5)
	maximum = 0.022 (at node 15)
Accepted packet rate average = 0.012125
	minimum = 0.004 (at node 5)
	maximum = 0.022 (at node 15)
Injected flit rate average = 0.0125
	minimum = 0.004 (at node 5)
	maximum = 0.022 (at node 15)
Accepted flit rate average= 0.012125
	minimum = 0.004 (at node 5)
	maximum = 0.022 (at node 15)
Injected packet length average = 1
Accepted packet length average = 1
Total in-flight flits = 3 (3 measured)
latency change    = 0.0915188
throughput change = 0.154639
Class 0:
Packet latency average = 18.4235
	minimum = 7
	maximum = 37
Network latency average = 18.4235
	minimum = 7
	maximum = 37
Slowest packet = 4540
Flit latency average = 18.4235
	minimum = 7
	maximum = 37
Slowest flit = 4540
Fragmentation average = 0
	minimum = 0
	maximum = 0
Injected packet rate average = 0.01075
	minimum = 0.005 (at node 5)
	maximum = 0.017 (at node 14)
Accepted packet rate average = 0.010625
	minimum = 0.005 (at node 3)
	maximum = 0.017 (at node 11)
Injected flit rate average = 0.01075
	minimum = 0.005 (at node 5)
	maximum = 0.017 (at node 14)
Accepted flit rate average= 0.010625
	minimum = 0.005 (at node 3)
	maximum = 0.017 (at node 11)
Injected packet length average = 1
Accepted packet length average = 1
Total in-flight flits = 2 (2 measured)
latency change    = 0.0151545
throughput change = 0.141176
Class 0:
Packet latency average = 19.3984
	minimum = 7
	maximum = 37
Network latency average = 19.3984
	minimum = 7
	maximum = 37
Slowest packet = 4540
Flit latency average = 19.3984
	minimum = 7
	maximum = 37
Slowest flit = 4540
Fragmentation average = 0
	minimum = 0
	maximum = 0
Injected packet rate average = 0.0105417
	minimum = 0.00466667 (at node 5)
	maximum = 0.0146667 (at node 4)
Accepted packet rate average = 0.0104583
	minimum = 0.00466667 (at node 5)
	maximum = 0.0146667 (at node 1)
Injected flit rate average = 0.0105417
	minimum = 0.00466667 (at node 5)
	maximum = 0.0146667 (at node 4)
Accepted flit rate average= 0.0104583
	minimum = 0.00466667 (at node 5)
	maximum = 0.0146667 (at node 1)
Injected packet length average = 1
Accepted packet length average = 1
Total in-flight flits = 2 (2 measured)
latency change    = 0.0502555
throughput change = 0.0159363
Class 0:
Packet latency average = 19.2448
	minimum = 7
	maximum = 37
Network latency average = 19.2448
	minimum = 7
	maximum = 37
Slowest packet = 4540
Flit latency average = 19.2448
	minimum = 7
	maximum = 37
Slowest flit = 4540
Fragmentation average = 0
	minimum = 0
	maximum = 0
Injected packet rate average = 0.010625
	minimum = 0.0065 (at node 13)
	maximum = 0.015 (at node 4)
Accepted packet rate average = 0.0104688
	minimum = 0.0065 (at node 7)
	maximum = 0.0145 (at node 1)
Injected flit rate average = 0.010625
	minimum = 0.0065 (at node 13)
	maximum = 0.015 (at node 4)
Accepted flit rate average= 0.0104688
	minimum = 0.0065 (at node 7)
	maximum = 0.0145 (at node 1)
Injected packet length average = 1
Accepted packet length average = 1
Total in-flight flits = 5 (5 measured)
latency change    = 0.00798296
throughput change = 0.000995025
Class 0:
Packet latency average = 19.3545
	minimum = 7
	maximum = 37
Network latency average = 19.3545
	minimum = 7
	maximum = 37
Slowest packet = 4540
Flit latency average = 19.3545
	minimum = 7
	maximum = 37
Slowest flit = 4540
Fragmentation average = 0
	minimum = 0
	maximum = 0
Injected packet rate average = 0.010325
	minimum = 0.0072 (at node 5)
	maximum = 0.0136 (at node 14)
Accepted packet rate average = 0.010225
	minimum = 0.0072 (at node 5)
	maximum = 0.0132 (at node 11)
Injected flit rate average = 0.010325
	minimum = 0.0072 (at node 5)
	maximum = 0.0136 (at node 14)
Accepted flit rate average= 0.010225
	minimum = 0.0072 (at node 5)
	maximum = 0.0132 (at node 11)
Injected packet length average = 1
Accepted packet length average = 1
Total in-flight flits = 4 (4 measured)
latency change    = 0.00567036
throughput change = 0.0238386
Class 0:
Packet latency average = 19.4004
	minimum = 7
	maximum = 38
Network latency average = 19.4004
	minimum = 7
	maximum = 38
Slowest packet = 4983
Flit latency average = 19.4004
	minimum = 7
	maximum = 38
Slowest flit = 4983
Fragmentation average = 0
	minimum = 0
	maximum = 0
Injected packet rate average = 0.0104792
	minimum = 0.007 (at node 13)
	maximum = 0.0136667 (at node 14)
Accepted packet rate average = 0.0104583
	minimum = 0.007 (at node 7)
	maximum = 0.0136667 (at node 11)
Injected flit rate average = 0.0104792
	minimum = 0.007 (at node 13)
	maximum = 0.0136667 (at node 14)
Accepted flit rate average= 0.0104583
	minimum = 0.007 (at node 7)
	maximum = 0.0136667 (at node 11)
Injected packet length average = 1
Accepted packet length average = 1
Total in-flight flits = 1 (1 measured)
latency change    = 0.00236465
throughput change = 0.0223108
Draining all recorded packets ...
Draining remaining packets ...
Time taken is 4547 cycles
Class 0:
Packet latency average = 16.4915
	minimum = 7
	maximum = 37
Network latency average = 16.4915
	minimum = 7
	maximum = 37
Slowest packet = 5088
Flit latency average = 16.4915
	minimum = 7
	maximum = 37
Slowest flit = 5088
Fragmentation average = 0
	minimum = 0
	maximum = 0
Injected packet rate average = 0.007625
	minimum = 0 (at node 7)
	maximum = 0.014 (at node 4)
Accepted packet rate average = 0.007375
	minimum = 0 (at node 13)
	maximum = 0.014 (at node 1)
Injected flit rate average = 0.007625
	minimum = 0 (at node 7)
	maximum = 0.014 (at node 4)
Accepted flit rate average= 0.007375
	minimum = 0 (at node 13)
	maximum = 0.014 (at node 1)
Injected packet length average = 1
Accepted packet length average = 1
Total in-flight flits = 2 (0 measured)
latency change    = 1
throughput change = 1
Class 0:
Packet latency average = 19.2671
	minimum = 7
	maximum = 37
Network latency average = 19.2671
	minimum = 7
	maximum = 37
Slowest packet = 5088
Flit latency average = 19.2671
	minimum = 7
	maximum = 37
Slowest flit = 5088
Fragmentation average = 0
	minimum = 0
	maximum = 0
Injected packet rate average = 0.00925
	minimum = 0.002 (at node 0)
	maximum = 0.016 (at node 9)
Accepted packet rate average = 0.009125
	minimum = 0.002 (at node 0)
	maximum = 0.016 (at node 6)
Injected flit rate average = 0.00925
	minimum = 0.002 (at node 0)
	maximum = 0.016 (at node 9)
Accepted flit rate average= 0.009125
	minimum = 0.002 (at node 0)
	maximum = 0.016 (at node 6)
Injected packet length average = 1
Accepted packet length average = 1
Total in-flight flits = 2 (0 measured)
latency change    = 0.144059
throughput change = 0.191781
Class 0:
Packet latency average = 20.2222
	minimum = 7
	maximum = 37
Network latency average = 20.2222
	minimum = 7
	maximum = 37
Slowest packet = 5191
Flit latency average = 20.2222
	minimum = 7
	maximum = 37
Slowest flit = 5191
Fragmentation average = 0
	minimum = 0
	maximum = 0
Injected packet rate average = 0.011625
	minimum = 0.006 (at node 0)
	maximum = 0.018 (at node 3)
Accepted packet rate average = 0.01125
	minimum = 0.006 (at node 0)
	maximum = 0.016 (at node 7)
Injected flit rate average = 0.011625
	minimum = 0.006 (at node 0)
	maximum = 0.018 (at node 3)
Accepted flit rate average= 0.01125
	minimum = 0.006 (at node 0)
	maximum = 0.016 (at node 7)
Injected packet length average = 1
Accepted packet length average = 1
Total in-flight flits = 5 (0 measured)
latency change    = 0.0472302
throughput change = 0.188889
Warmed up ...Time used is 1500 cycles
Class 0:
Packet latency average = 19.6389
	minimum = 7
	maximum = 37
Network latency average = 19.6389
	minimum = 7
	maximum = 37
Slowest packet = 5288
Flit latency average = 19.7273
	minimum = 7
	maximum = 37
Slowest flit = 5275
Fragmentation average = 0
	minimum = 0
	maximum = 0
Injected packet rate average = 0.009625
	minimum = 0.002 (at node 0)
	maximum = 0.018 (at node 11)
Accepted packet rate average = 0.009625
	minimum = 0.002 (at node 0)
	maximum = 0.018 (at node 14)
Injected flit rate average = 0.009625
	minimum = 0.002 (at node 0)
	maximum = 0.018 (at node 11)
Accepted flit rate average= 0.009625
	minimum = 0.002 (at node 0)
	maximum = 0.018 (at node 14)
Injected packet length average = 1
Accepted packet length average = 1
Total in-flight flits = 5 (5 measured)
latency change    = 0.029703
throughput change = 0.168831
Class 0:
Packet latency average = 19.6174
	minimum = 7
	maximum = 37
Network latency average = 19.6174
	minimum = 7
	maximum = 37
Slowest packet = 5288
Flit latency average = 19.6623
	minimum = 7
	maximum = 37
Slowest flit = 5275
Fragmentation average = 0
	minimum = 0
	maximum = 0
Injected packet rate average = 0.009375
	minimum = 0.005 (at node 9)
	maximum = 0.016 (at node 11)
Accepted packet rate average = 0.009625
	minimum = 0.006 (at node 0)
	maximum = 0.016 (at node 14)
Injected flit rate average = 0.009375
	minimum = 0.005 (at node 9)
	maximum = 0.016 (at node 11)
Accepted flit rate average= 0.009625
	minimum = 0.006 (at node 0)
	maximum = 0.016 (at node 14)
Injected packet length average = 1
Accepted packet length average = 1
Total in-flight flits = 1 (1 measured)
latency change    = 0.00109287
throughput change = 0
Class 0:
Packet latency average = 19.5991
	minimum = 7
	maximum = 37
Network latency average = 19.5991
	minimum = 7
	maximum = 37
Slowest packet = 5288
Flit latency average = 19.6293
	minimum = 7
	maximum = 37
Slowest flit = 5275
Fragmentation average = 0
	minimum = 0
	maximum = 0
Injected packet rate average = 0.00970833
	minimum = 0.00533333 (at node 14)
	maximum = 0.018 (at node 11)
Accepted packet rate average = 0.00966667
	minimum = 0.006 (at node 11)
	maximum = 0.018 (at node 14)
Injected flit rate average = 0.00970833
	minimum = 0.00533333 (at node 14)
	maximum = 0.018 (at node 11)
Accepted flit rate average= 0.00966667
	minimum = 0.006 (at node 11)
	maximum = 0.018 (at node 14)
Injected packet length average = 1
Accepted packet length average = 1
Total in-flight flits = 6 (6 measured)
latency change    = 0.000935283
throughput change = 0.00431034
Class 0:
Packet latency average = 19.6333
	minimum = 7
	maximum = 37
Network latency average = 19.6333
	minimum = 7
	maximum = 37
Slowest packet = 5288
Flit latency average = 19.6557
	minimum = 7
	maximum = 37
Slowest flit = 5275
Fragmentation average = 0
	minimum = 0
	maximum = 0
Injected packet rate average = 0.00946875
	minimum = 0.0065 (at node 14)
	maximum = 0.0165 (at node 11)
Accepted packet rate average = 0.00953125
	minimum = 0.0065 (at node 3)
	maximum = 0.0165 (at node 14)
Injected flit rate average = 0.00946875
	minimum = 0.0065 (at node 14)
	maximum = 0.0165 (at node 11)
Accepted flit rate average= 0.00953125
	minimum = 0.0065 (at node 3)
	maximum = 0.0165 (at node 14)
Injected packet length average = 1
Accepted packet length average = 1
Total in-flight flits = 3 (3 measured)
latency change    = 0.00174267
throughput change = 0.0142077
Draining all recorded packets ...
Draining remaining packets ...
Time taken is 3561 cycles
Class 0:
Packet latency average = 18.875
	minimum = 7
	maximum = 37
Network latency average = 18.875
	minimum = 7
	maximum = 37
Slowest packet = 5589
Flit latency average = 18.875
	minimum = 7
	maximum = 37
Slowest flit = 5589
Fragmentation average = 0
	minimum = 0
	maximum = 0
Injected packet rate average = 0.01025
	minimum = 0.002 (at node 3)
	maximum = 0.02 (at node 7)
Accepted packet rate average = 0.01
	minimum = 0.002 (at node 12)
	maximum = 0.018 (at node 13)
Injected flit rate average = 0.01025
	minimum = 0.002 (at node 3)
	maximum = 0.02 (at node 7)
Accepted flit rate average= 0.01
	minimum = 0.002 (at node 12)
	maximum = 0.018 (at node 13)
Injected packet length average = 1
Accepted packet length average = 1
Total in-flight flits = 2 (0 measured)
latency change    = 1
throughput change = 1
Class 0:
Packet latency average = 19.4837
	minimum = 7
	maximum = 37
Network latency average = 19.4837
	minimum = 7
	maximum = 37
Slowest packet = 5589
Flit latency average = 19.4837
	minimum = 7
	maximum = 37
Slowest flit = 5589
Fragmentation average = 0
	minimum = 0
	maximum = 0
Injected packet rate average = 0.00975
	minimum = 0.006 (at node 2)
	maximum = 0.015 (at node 7)
Accepted packet rate average = 0.0095625
	minimum = 0.006 (at node 3)
	maximum = 0.015 (at node 13)
Injected flit rate average = 0.00975
	minimum = 0.006 (at node 2)
	maximum = 0.015 (at node 7)
Accepted flit rate average= 0.0095625
	minimum = 0.006 (at node 3)
	maximum = 0.015 (at node 13)
Injected packet length average = 1
Accepted packet length average = 1
Total in-flight flits = 3 (0 measured)
latency change    = 0.0312395
throughput change = 0.0457516
Class 0:
Packet latency average = 19.8571
	minimum = 7
	maximum = 37
Network latency average = 19.8571
	minimum = 7
	maximum = 37
Slowest packet = 5746
Flit latency average = 19.8571
	minimum = 7
	maximum = 37
Slowest flit = 5746
Fragmentation average = 0
	minimum = 0
	maximum = 0
Injected packet rate average = 0.0095
	minimum = 0.006 (at node 1)
	maximum = 0.012 (at node 2)
Accepted packet rate average = 0.009625
	minimum = 0.006 (at node 4)
	maximum = 0.014 (at node 1)
Injected flit rate average = 0.0095
	minimum = 0.006 (at node 1)
	maximum = 0.012 (at node 2)
Accepted flit rate average= 0.009625
	minimum = 0.006 (at node 4)
	maximum = 0.014 (at node 1)
Injected packet length average = 1
Accepted packet length average = 1
Total in-flight flits = 2 (0 measured)
latency change    = 0.0188085
throughput change = 0.00649351
Warmed up ...Time used is 1500 cycles
Class 0:
Packet latency average = 18.0448
	minimum = 7
	maximum = 37
Network latency average = 18.0448
	minimum = 7
	maximum = 37
Slowest packet = 5830
Flit latency average = 18.4493
	minimum = 7
	maximum = 37
Slowest flit = 5819
Fragmentation average = 0
	minimum = 0
	maximum = 0
Injected packet rate average = 0.009
	minimum = 0 (at node 6)
	maximum = 0.016 (at node 15)
Accepted packet rate average = 0.008625
	minimum = 0 (at node 9)
	maximum = 0.016 (at node 15)
Injected flit rate average = 0.009
	minimum = 0 (at node 6)
	maximum = 0.016 (at node 15)
Accepted flit rate average= 0.008625
	minimum = 0 (at node 9)
	maximum = 0.016 (at node 15)
Injected packet length average = 1
Accepted packet length average = 1
Total in-flight flits = 5 (5 measured)
latency change    = 0.100437
throughput change = 0.115942
Class 0:
Packet latency average = 18.4094
	minimum = 7
	maximum = 37
Network latency average = 18.4094
	minimum = 7
	maximum = 37
Slowest packet = 5830
Flit latency average = 18.5894
	minimum = 7
	maximum = 37
Slowest flit = 5819
Fragmentation average = 0
	minimum = 0
	maximum = 0
Injected packet rate average = 0.0095625
	minimum = 0.003 (at node 6)
	maximum = 0.015 (at node 4)
Accepted packet rate average = 0.0094375
	minimum = 0.002 (at node 9)
	maximum = 0.015 (at node 1)
Injected flit rate average = 0.0095625
	minimum = 0.003 (at node 6)
	maximum = 0.015 (at node 4)
Accepted flit rate average= 0.0094375
	minimum = 0.002 (at node 9)
	maximum = 0.015 (at node 1)
Injected packet length average = 1
Accepted packet length average = 1
Total in-flight flits = 4 (4 measured)
latency change    = 0.0198062
throughput change = 0.0860927
Class 0:
Packet latency average = 18.6889
	minimum = 7
	maximum = 37
Network latency average = 18.6889
	minimum = 7
	maximum = 37
Slowest packet = 5830
Flit latency average = 18.8062
	minimum = 7
	maximum = 37
Slowest flit = 5819
Fragmentation average = 0
	minimum = 0
	maximum = 0
Injected packet rate average = 0.00970833
	minimum = 0.004 (at node 6)
	maximum = 0.014 (at node 4)
Accepted packet rate average = 0.00945833
	minimum = 0.00333333 (at node 9)
	maximum = 0.0146667 (at node 13)
Injected flit rate average = 0.00970833
	minimum = 0.004 (at node 6)
	maximum = 0.014 (at node 4)
Accepted flit rate average= 0.00945833
	minimum = 0.00333333 (at node 9)
	maximum = 0.0146667 (at node 13)
Injected packet length average = 1
Accepted packet length average = 1
Total in-flight flits = 8 (8 measured)
latency change    = 0.014955
throughput change = 0.00220264
Class 0:
Packet latency average = 18.541
	minimum = 7
	maximum = 37
Network latency average = 18.541
	minimum = 7
	maximum = 37
Slowest packet = 5830
Flit latency average = 18.6287
	minimum = 7
	maximum = 37
Slowest flit = 5819
Fragmentation average = 0
	minimum = 0
	maximum = 0
Injected packet rate average = 0.00959375
	minimum = 0.0055 (at node 6)
	maximum = 0.0135 (at node 7)
Accepted packet rate average = 0.00959375
	minimum = 0.0055 (at node 9)
	maximum = 0.014 (at node 13)
Injected flit rate average = 0.00959375
	minimum = 0.0055 (at node 6)
	maximum = 0.0135 (at node 7)
Accepted flit rate average= 0.00959375
	minimum = 0.0055 (at node 9)
	maximum = 0.014 (at node 13)
Injected packet length average = 1
Accepted packet length average = 1
Total in-flight flits = 2 (2 measured)
latency change    = 0.00797721
throughput change = 0.0141151
Class 0:
Packet latency average = 18.6845
	minimum = 7
	maximum = 37
Network latency average = 18.6845
	minimum = 7
	maximum = 37
Slowest packet = 5830
Flit latency average = 18.7553
	minimum = 7
	maximum = 37
Slowest flit = 5819
Fragmentation average = 0
	minimum = 0
	maximum = 0
Injected packet rate average = 0.0094
	minimum = 0.0064 (at node 12)
	maximum = 0.012 (at node 0)
Accepted packet rate average = 0.0094
	minimum = 0.0064 (at node 3)
	maximum = 0.012 (at node 0)
Injected flit rate average = 0.0094
	minimum = 0.0064 (at node 12)
	maximum = 0.012 (at node 0)
Accepted flit rate average= 0.0094
	minimum = 0.0064 (at node 3)
	maximum = 0.012 (at node 0)
Injected packet length average = 1
Accepted packet length average = 1
Total in-flight flits = 2 (2 measured)
latency change    = 0.00768061
throughput change = 0.0206117
Draining all recorded packets ...
Draining remaining packets ...
Time taken is 4050 cycles
Class 0:
Packet latency average = 20.0923
	minimum = 7
	maximum = 38
Network latency average = 20.0923
	minimum = 7
	maximum = 38
Slowest packet = 6220
Flit latency average = 20.0923
	minimum = 7
	maximum = 38
Slowest flit = 6220
Fragmentation average = 0
	minimum = 0
	maximum = 0
Injected packet rate average = 0.008625
	minimum = 0 (at node 15)
	maximum = 0.016 (at node 0)
Accepted packet rate average = 0.008125
	minimum = 0 (at node 15)
	maximum = 0.016 (at node 0)
Injected flit rate average = 0.008625
	minimum = 0 (at node 15)
	maximum = 0.016 (at node 0)
Accepted flit rate average= 0.008125
	minimum = 0 (at node 15)
	maximum = 0.016 (at node 0)
Injected packet length average = 1
Accepted packet length average = 1
Total in-flight flits = 4 (0 measured)
latency change    = 1
throughput change = 1
Class 0:
Packet latency average = 19.9013
	minimum = 7
	maximum = 38
Network latency average = 19.9013
	minimum = 7
	maximum = 38
Slowest packet = 6220
Flit latency average = 19.9013
	minimum = 7
	maximum = 38
Slowest flit = 6220
Fragmentation average = 0
	minimum = 0
	maximum = 0
Injected packet rate average = 0.009875
	minimum = 0.003 (at node 15)
	maximum = 0.018 (at node 0)
Accepted packet rate average = 0.0095
	minimum = 0.003 (at node 15)
	maximum = 0.018 (at node 0)
Injected flit rate average = 0.009875
	minimum = 0.003 (at node 15)
	maximum = 0.018 (at node 0)
Accepted flit rate average= 0.0095
	minimum = 0.003 (at node 15)
	maximum = 0.018 (at node 0)
Injected packet length average = 1
Accepted packet length average = 1
Total in-flight flits = 6 (0 measured)
latency change    = 0.00959695
throughput change = 0.144737
Class 0:
Packet latency average = 19.625
	minimum = 7
	maximum = 37
Network latency average = 19.625
	minimum = 7
	maximum = 37
Slowest packet = 6351
Flit latency average = 19.625
	minimum = 7
	maximum = 37
Slowest flit = 6351
Fragmentation average = 0
	minimum = 0
	maximum = 0
Injected packet rate average = 0.009625
	minimum = 0 (at node 13)
	maximum = 0.02 (at node 10)
Accepted packet rate average = 0.01
	minimum = 0 (at node 7)
	maximum = 0.02 (at node 10)
Injected flit rate average = 0.009625
	minimum = 0 (at node 13)
	maximum = 0.02 (at node 10)
Accepted flit rate average= 0.01
	minimum = 0 (at node 7)
	maximum = 0.02 (at node 10)
Injected packet length average = 1
Accepted packet length average = 1
Total in-flight flits = 3 (0 measured)
latency change    = 0.0140798
throughput change = 0.05
Warmed up ...Time used is 1500 cycles
Class 0:
Packet latency average = 19.9231
	minimum = 7
	maximum = 37
Network latency average = 19.9231
	minimum = 7
	maximum = 37
Slowest packet = 6433
Flit latency average = 20.2353
	minimum = 7
	maximum = 37
Slowest flit = 6433
Fragmentation average = 0
	minimum = 0
	maximum = 0
Injected packet rate average = 0.008625
	minimum = 0.002 (at node 2)
	maximum = 0.018 (at node 13)
Accepted packet rate average = 0.0085
	minimum = 0.002 (at node 11)
	maximum = 0.016 (at node 7)
Injected flit rate average = 0.008625
	minimum = 0.002 (at node 2)
	maximum = 0.018 (at node 13)
Accepted flit rate average= 0.0085
	minimum = 0.002 (at node 11)
	maximum = 0.016 (at node 7)
Injected packet length average = 1
Accepted packet length average = 1
Total in-flight flits = 4 (4 measured)
latency change    = 0.0149614
throughput change = 0.176471
Class 0:
Packet latency average = 19.8639
	minimum = 7
	maximum = 37
Network latency average = 19.8639
	minimum = 7
	maximum = 37
Slowest packet = 6433
Flit latency average = 20.0067
	minimum = 7
	maximum = 37
Slowest flit = 6433
Fragmentation average = 0
	minimum = 0
	maximum = 0
Injected packet rate average = 0.0093125
	minimum = 0.006 (at node 2)
	maximum = 0.012 (at node 3)
Accepted packet rate average = 0.009375
	minimum = 0.007 (at node 3)
	maximum = 0.013 (at node 13)
Injected flit rate average = 0.0093125
	minimum = 0.006 (at node 2)
	maximum = 0.012 (at node 3)
Accepted flit rate average= 0.009375
	minimum = 0.007 (at node 3)
	maximum = 0.013 (at node 13)
Injected packet length average = 1
Accepted packet length average = 1
Total in-flight flits = 2 (2 measured)
latency change    = 0.00297682
throughput change = 0.0933333
Class 0:
Packet latency average = 19.4583
	minimum = 7
	maximum = 37
Network latency average = 19.4583
	minimum = 7
	maximum = 37
Slowest packet = 6433
Flit latency average = 19.5616
	minimum = 7
	maximum = 37
Slowest flit = 6433
Fragmentation average = 0
	minimum = 0
	maximum = 0
Injected packet rate average = 0.00904167
	minimum = 0.00666667 (at node 2)
	maximum = 0.0113333 (at node 8)
Accepted packet rate average = 0.009125
	minimum = 0.00666667 (at node 9)
	maximum = 0.012 (at node 2)
Injected flit rate average = 0.00904167
	minimum = 0.00666667 (at node 2)
	maximum = 0.0113333 (at node 8)
Accepted flit rate average= 0.009125
	minimum = 0.00666667 (at node 9)
	maximum = 0.012 (at node 2)
Injected packet length average = 1
Accepted packet length average = 1
Total in-flight flits = 1 (1 measured)
latency change    = 0.0208452
throughput change = 0.0273973
Class 0:
Packet latency average = 19.4295
	minimum = 7
	maximum = 37
Network latency average = 19.4295
	minimum = 7
	maximum = 37
Slowest packet = 6433
Flit latency average = 19.5032
	minimum = 7
	maximum = 37
Slowest flit = 6433
Fragmentation average = 0
	minimum = 0
	maximum = 0
Injected packet rate average = 0.00959375
	minimum = 0.007 (at node 6)
	maximum = 0.0115 (at node 3)
Accepted packet rate average = 0.009625
	minimum = 0.007 (at node 9)
	maximum = 0.0115 (at node 2)
Injected flit rate average = 0.00959375
	minimum = 0.007 (at node 6)
	maximum = 0.0115 (at node 3)
Accepted flit rate average= 0.009625
	minimum = 0.007 (at node 9)
	maximum = 0.0115 (at node 2)
Injected packet length average = 1
Accepted packet length average = 1
Total in-flight flits = 2 (2 measured)
latency change    = 0.00148358
throughput change = 0.0519481
Class 0:
Packet latency average = 19.3123
	minimum = 7
	maximum = 37
Network latency average = 19.3123
	minimum = 7
	maximum = 37
Slowest packet = 6433
Flit latency average = 19.3724
	minimum = 7
	maximum = 37
Slowest flit = 6433
Fragmentation average = 0
	minimum = 0
	maximum = 0
Injected packet rate average = 0.0096
	minimum = 0.0076 (at node 12)
	maximum = 0.012 (at node 8)
Accepted packet rate average = 0.0096
	minimum = 0.0076 (at node 3)
	maximum = 0.0124 (at node 2)
Injected flit rate average = 0.0096
	minimum = 0.0076 (at node 12)
	maximum = 0.012 (at node 8)
Accepted flit rate average= 0.0096
	minimum = 0.0076 (at node 3)
	maximum = 0.0124 (at node 2)
Injected packet length average = 1
Accepted packet length average = 1
Total in-flight flits = 3 (3 measured)
latency change    = 0.00606722
throughput change = 0.00260417
Class 0:
Packet latency average = 19.0966
	minimum = 7
	maximum = 37
Network latency average = 19.0966
	minimum = 7
	maximum = 37
Slowest packet = 6433
Flit latency average = 19.1496
	minimum = 7
	maximum = 37
Slowest flit = 6433
Fragmentation average = 0
	minimum = 0
	maximum = 0
Injected packet rate average = 0.009375
	minimum = 0.007 (at node 12)
	maximum = 0.0116667 (at node 8)
Accepted packet rate average = 0.00933333
	minimum = 0.00666667 (at node 3)
	maximum = 0.012 (at node 2)
Injected flit rate average = 0.009375
	minimum = 0.007 (at node 12)
	maximum = 0.0116667 (at node 8)
Accepted flit rate average= 0.00933333
	minimum = 0.00666667 (at node 3)
	maximum = 0.012 (at node 2)
Injected packet length average = 1
Accepted packet length average = 1
Total in-flight flits = 5 (5 measured)
latency change    = 0.0112955
throughput change = 0.0285714
Class 0:
Packet latency average = 19.1657
	minimum = 7
	maximum = 37
Network latency average = 19.1657
	minimum = 7
	maximum = 37
Slowest packet = 6433
Flit latency average = 19.2093
	minimum = 7
	maximum = 37
Slowest flit = 6433
Fragmentation average = 0
	minimum = 0
	maximum = 0
Injected packet rate average = 0.00958929
	minimum = 0.00771429 (at node 12)
	maximum = 0.0125714 (at node 4)
Accepted packet rate average = 0.00964286
	minimum = 0.00771429 (at node 3)
	maximum = 0.0125714 (at node 1)
Injected flit rate average = 0.00958929
	minimum = 0.00771429 (at node 12)
	maximum = 0.0125714 (at node 4)
Accepted flit rate average= 0.00964286
	minimum = 0.00771429 (at node 3)
	maximum = 0.0125714 (at node 1)
Injected packet length average = 1
Accepted packet length average = 1
Total in-flight flits = 0 (0 measured)
latency change    = 0.00360572
throughput change = 0.0320988
Draining all recorded packets ...
Draining remaining packets ...
Time taken is 5001 cycles
Class 0:
Packet latency average = 20
	minimum = 7
	maximum = 38
Network latency average = 20
	minimum = 7
	maximum = 38
Slowest packet = 7025
Flit latency average = 20
	minimum = 7
	maximum = 38
Slowest flit = 7025
Fragmentation average = 0
	minimum = 0
	maximum = 0
Injected packet rate average = 0.010625
	minimum = 0.006 (at node 6)
	maximum = 0.018 (at node 4)
Accepted packet rate average = 0.0105
	minimum = 0.006 (at node 9)
	maximum = 0.018 (at node 1)
Injected flit rate average = 0.010625
	minimum = 0.006 (at node 6)
	maximum = 0.018 (at node 4)
Accepted flit rate average= 0.0105
	minimum = 0.006 (at node 9)
	maximum = 0.018 (at node 1)
Injected packet length average = 1
Accepted packet length average = 1
Total in-flight flits = 1 (0 measured)
latency change    = 1
throughput change = 1
Class 0:
Packet latency average = 19.9542
	minimum = 7
	maximum = 38
Network latency average = 19.9542
	minimum = 7
	maximum = 38
Slowest packet = 7025
Flit latency average = 19.9542
	minimum = 7
	maximum = 38
Slowest flit = 7025
Fragmentation average = 0
	minimum = 0
	maximum = 0
Injected packet rate average = 0.0096875
	minimum = 0.008 (at node 0)
	maximum = 0.015 (at node 8)
Accepted packet rate average = 0.0095625
	minimum = 0.007 (at node 8)
	maximum = 0.014 (at node 2)
Injected flit rate average = 0.0096875
	minimum = 0.008 (at node 0)
	maximum = 0.015 (at node 8)
Accepted flit rate average= 0.0095625
	minimum = 0.007 (at node 8)
	maximum = 0.014 (at node 2)
Injected packet length average = 1
Accepted packet length average = 1
Total in-flight flits = 2 (0 measured)
latency change    = 0.00229283
throughput change = 0.0980392
Class 0:
Packet latency average = 18.2907
	minimum = 7
	maximum = 37
Network latency average = 18.2907
	minimum = 7
	maximum = 37
Slowest packet = 7147
Flit latency average = 18.2907
	minimum = 7
	maximum = 37
Slowest flit = 7147
Fragmentation average = 0
	minimum = 0
	maximum = 0
Injected packet rate average = 0.011125
	minimum = 0.004 (at node 6)
	maximum = 0.022 (at node 15)
Accepted packet rate average = 0.01075
	minimum = 0.004 (at node 3)
	maximum = 0.02 (at node 15)
Injected flit rate average = 0.011125
	minimum = 0.004 (at node 6)
	maximum = 0.022 (at node 15)
Accepted flit rate average= 0.01075
	minimum = 0.004 (at node 3)
	maximum = 0.02 (at node 15)
Injected packet length average = 1
Accepted packet length average = 1
Total in-flight flits = 5 (0 measured)
latency change    = 0.0909506
throughput change = 0.110465
Warmed up ...Time used is 1500 cycles
Class 0:
Packet latency average = 19.5
	minimum = 7
	maximum = 37
Network latency average = 19.5
	minimum = 7
	maximum = 37
Slowest packet = 7222
Flit latency average = 19.716
	minimum = 7
	maximum = 37
Slowest flit = 7209
Fragmentation average = 0
	minimum = 0
	maximum = 0
Injected packet rate average = 0.009625
	minimum = 0.004 (at node 7)
	maximum = 0.018 (at node 3)
Accepted packet rate average = 0.010125
	minimum = 0.004 (at node 13)
	maximum = 0.02 (at node 12)
Injected flit rate average = 0.009625
	minimum = 0.004 (at node 7)
	maximum = 0.018 (at node 3)
Accepted flit rate average= 0.010125
	minimum = 0.004 (at node 13)
	maximum = 0.02 (at node 12)
Injected packet length average = 1
Accepted packet length average = 1
Total in-flight flits = 1 (1 measured)
latency change    = 0.0620155
throughput change = 0.0617284
Class 0:
Packet latency average = 19.7333
	minimum = 7
	maximum = 37
Network latency average = 19.7333
	minimum = 7
	maximum = 37
Slowest packet = 7222
Flit latency average = 19.8387
	minimum = 7
	maximum = 37
Slowest flit = 7209
Fragmentation average = 0
	minimum = 0
	maximum = 0
Injected packet rate average = 0.00975
	minimum = 0.005 (at node 7)
	maximum = 0.014 (at node 1)
Accepted packet rate average = 0.0096875
	minimum = 0.005 (at node 13)
	maximum = 0.014 (at node 4)
Injected flit rate average = 0.00975
	minimum = 0.005 (at node 7)
	maximum = 0.014 (at node 1)
Accepted flit rate average= 0.0096875
	minimum = 0.005 (at node 13)
	maximum = 0.014 (at node 4)
Injected packet length average = 1
Accepted packet length average = 1
Total in-flight flits = 6 (6 measured)
latency change    = 0.0118243
throughput change = 0.0451613
Class 0:
Packet latency average = 19.9959
	minimum = 7
	maximum = 38
Network latency average = 19.9959
	minimum = 7
	maximum = 38
Slowest packet = 7408
Flit latency average = 20.0562
	minimum = 7
	maximum = 38
Slowest flit = 7408
Fragmentation average = 0
	minimum = 0
	maximum = 0
Injected packet rate average = 0.010375
	minimum = 0.00533333 (at node 10)
[...]
Packet latency average = 17.6742
	minimum = 7
	maximum = 37
Network latency average = 17.6742
	minimum = 7
	maximum = 37
Slowest packet = 31371
Flit latency average = 17.6593
	minimum = 7
	maximum = 37
Slowest flit = 31371
Fragmentation average = 0
	minimum = 0
	maximum = 0
Injected packet rate average = 0.01125
	minimum = 0.004 (at node 2)
	maximum = 0.02 (at node 6)
Accepted packet rate average = 0.011375
	minimum = 0.004 (at node 12)
	maximum = 0.02 (at node 9)
Injected flit rate average = 0.01125
	minimum = 0.004 (at node 2)
	maximum = 0.02 (at node 6)
Accepted flit rate average= 0.011375
	minimum = 0.004 (at node 12)
	maximum = 0.02 (at node 9)
Injected packet length average = 1
Accepted packet length average = 1
Total in-flight flits = 1 (1 measured)
latency change    = 0.0502622
throughput change = 0.296703
Class 0:
Packet latency average = 18.6386
	minimum = 7
	maximum = 37
Network latency average = 18.6386
	minimum = 7
	maximum = 37
Slowest packet = 31371
Flit latency average = 18.619
	minimum = 7
	maximum = 37
Slowest flit = 31371
Fragmentation average = 0
	minimum = 0
	maximum = 0
Injected packet rate average = 0.0105
	minimum = 0.006 (at node 2)
	maximum = 0.015 (at node 6)
Accepted packet rate average = 0.0105
	minimum = 0.006 (at node 2)
	maximum = 0.015 (at node 9)
Injected flit rate average = 0.0105
	minimum = 0.006 (at node 2)
	maximum = 0.015 (at node 6)
Accepted flit rate average= 0.0105
	minimum = 0.006 (at node 2)
	maximum = 0.015 (at node 9)
Injected packet length average = 1
Accepted packet length average = 1
Total in-flight flits = 2 (2 measured)
latency change    = 0.051742
throughput change = 0.0833333
Class 0:
Packet latency average = 19.083
	minimum = 7
	maximum = 37
Network latency average = 19.083
	minimum = 7
	maximum = 37
Slowest packet = 31371
Flit latency average = 19.0658
	minimum = 7
	maximum = 37
Slowest flit = 31371
Fragmentation average = 0
	minimum = 0
	maximum = 0
Injected packet rate average = 0.0102083
	minimum = 0.00733333 (at node 13)
	maximum = 0.014 (at node 6)
Accepted packet rate average = 0.010125
	minimum = 0.00733333 (at node 7)
	maximum = 0.014 (at node 9)
Injected flit rate average = 0.0102083
	minimum = 0.00733333 (at node 13)
	maximum = 0.014 (at node 6)
Accepted flit rate average= 0.010125
	minimum = 0.00733333 (at node 7)
	maximum = 0.014 (at node 9)
Injected packet length average = 1
Accepted packet length average = 1
Total in-flight flits = 4 (4 measured)
latency change    = 0.0232895
throughput change = 0.037037
Class 0:
Packet latency average = 18.5816
	minimum = 7
	maximum = 38
Network latency average = 18.5816
	minimum = 7
	maximum = 38
Slowest packet = 31673
Flit latency average = 18.5723
	minimum = 7
	maximum = 38
Slowest flit = 31673
Fragmentation average = 0
	minimum = 0
	maximum = 0
Injected packet rate average = 0.0105938
	minimum = 0.0065 (at node 8)
	maximum = 0.0135 (at node 11)
Accepted packet rate average = 0.0105938
	minimum = 0.0065 (at node 2)
	maximum = 0.0135 (at node 14)
Injected flit rate average = 0.0105938
	minimum = 0.0065 (at node 8)
	maximum = 0.0135 (at node 11)
Accepted flit rate average= 0.0105938
	minimum = 0.0065 (at node 2)
	maximum = 0.0135 (at node 14)
Injected packet length average = 1
Accepted packet length average = 1
Total in-flight flits = 2 (2 measured)
latency change    = 0.0269829
throughput change = 0.0442478
Class 0:
Packet latency average = 18.9484
	minimum = 7
	maximum = 38
Network latency average = 18.9484
	minimum = 7
	maximum = 38
Slowest packet = 31673
Flit latency average = 18.9389
	minimum = 7
	maximum = 38
Slowest flit = 31673
Fragmentation average = 0
	minimum = 0
	maximum = 0
Injected packet rate average = 0.010225
	minimum = 0.0064 (at node 8)
	maximum = 0.0124 (at node 0)
Accepted packet rate average = 0.010225
	minimum = 0.0064 (at node 2)
	maximum = 0.0124 (at node 0)
Injected flit rate average = 0.010225
	minimum = 0.0064 (at node 8)
	maximum = 0.0124 (at node 0)
Accepted flit rate average= 0.010225
	minimum = 0.0064 (at node 2)
	maximum = 0.0124 (at node 0)
Injected packet length average = 1
Accepted packet length average = 1
Total in-flight flits = 2 (2 measured)
latency change    = 0.0193579
throughput change = 0.0360636
Draining all recorded packets ...
Draining remaining packets ...
Time taken is 4023 cycles
Class 0:
Packet latency average = 19.2208
	minimum = 7
	maximum = 37
Network latency average = 19.2208
	minimum = 7
	maximum = 37
Slowest packet = 31791
Flit latency average = 19.2208
	minimum = 7
	maximum = 37
Slowest flit = 31791
Fragmentation average = 0
	minimum = 0
	maximum = 0
Injected packet rate average = 0.01
	minimum = 0.002 (at node 14)
	maximum = 0.016 (at node 1)
Accepted packet rate average = 0.009625
	minimum = 0.002 (at node 11)
	maximum = 0.016 (at node 4)
Injected flit rate average = 0.01
	minimum = 0.002 (at node 14)
	maximum = 0.016 (at node 1)
Accepted flit rate average= 0.009625
	minimum = 0.002 (at node 11)
	maximum = 0.016 (at node 4)
Injected packet length average = 1
Accepted packet length average = 1
Total in-flight flits = 3 (0 measured)
latency change    = 1
throughput change = 1
Class 0:
Packet latency average = 19.9931
	minimum = 7
	maximum = 37
Network latency average = 19.9931
	minimum = 7
	maximum = 37
Slowest packet = 31791
Flit latency average = 19.9931
	minimum = 7
	maximum = 37
Slowest flit = 31791
Fragmentation average = 0
	minimum = 0
	maximum = 0
Injected packet rate average = 0.009125
	minimum = 0.004 (at node 12)
	maximum = 0.015 (at node 2)
Accepted packet rate average = 0.009
	minimum = 0.004 (at node 3)
	maximum = 0.014 (at node 8)
Injected flit rate average = 0.009125
	minimum = 0.004 (at node 12)
	maximum = 0.015 (at node 2)
Accepted flit rate average= 0.009
	minimum = 0.004 (at node 3)
	maximum = 0.014 (at node 8)
Injected packet length average = 1
Accepted packet length average = 1
Total in-flight flits = 2 (0 measured)
latency change    = 0.0386272
throughput change = 0.0694444
Class 0:
Packet latency average = 20.0263
	minimum = 7
	maximum = 37
Network latency average = 20.0263
	minimum = 7
	maximum = 37
Slowest packet = 31915
Flit latency average = 20.0263
	minimum = 7
	maximum = 37
Slowest flit = 31915
Fragmentation average = 0
	minimum = 0
	maximum = 0
Injected packet rate average = 0.00975
	minimum = 0.002 (at node 10)
	maximum = 0.016 (at node 13)
Accepted packet rate average = 0.0095
	minimum = 0.004 (at node 10)
	maximum = 0.016 (at node 7)
Injected flit rate average = 0.00975
	minimum = 0.002 (at node 10)
	maximum = 0.016 (at node 13)
Accepted flit rate average= 0.0095
	minimum = 0.004 (at node 10)
	maximum = 0.016 (at node 7)
Injected packet length average = 1
Accepted packet length average = 1
Total in-flight flits = 4 (0 measured)
latency change    = 0.00166083
throughput change = 0.0526316
Warmed up ...Time used is 1500 cycles
Class 0:
Packet latency average = 20.5526
	minimum = 7
	maximum = 37
Network latency average = 20.5526
	minimum = 7
	maximum = 37
Slowest packet = 31997
Flit latency average = 21.125
	minimum = 7
	maximum = 37
Slowest flit = 31989
Fragmentation average = 0
	minimum = 0
	maximum = 0
Injected packet rate average = 0.01
	minimum = 0.004 (at node 1)
	maximum = 0.018 (at node 6)
Accepted packet rate average = 0.01
	minimum = 0.004 (at node 4)
	maximum = 0.018 (at node 3)
Injected flit rate average = 0.01
	minimum = 0.004 (at node 1)
	maximum = 0.018 (at node 6)
Accepted flit rate average= 0.01
	minimum = 0.004 (at node 4)
	maximum = 0.018 (at node 3)
Injected packet length average = 1
Accepted packet length average = 1
Total in-flight flits = 4 (4 measured)
latency change    = 0.0256082
throughput change = 0.05
Class 0:
Packet latency average = 19.7273
	minimum = 7
	maximum = 37
Network latency average = 19.7273
	minimum = 7
	maximum = 37
Slowest packet = 31997
Flit latency average = 20.0178
	minimum = 7
	maximum = 37
Slowest flit = 31989
Fragmentation average = 0
	minimum = 0
	maximum = 0
Injected packet rate average = 0.0106875
	minimum = 0.002 (at node 5)
	maximum = 0.016 (at node 6)
Accepted packet rate average = 0.0105625
	minimum = 0.002 (at node 5)
	maximum = 0.015 (at node 1)
Injected flit rate average = 0.0106875
	minimum = 0.002 (at node 5)
	maximum = 0.016 (at node 6)
Accepted flit rate average= 0.0105625
	minimum = 0.002 (at node 5)
	maximum = 0.015 (at node 1)
Injected packet length average = 1
Accepted packet length average = 1
Total in-flight flits = 6 (6 measured)
latency change    = 0.0418385
throughput change = 0.0532544
Class 0:
Packet latency average = 19.7004
	minimum = 7
	maximum = 37
Network latency average = 19.7004
	minimum = 7
	maximum = 37
Slowest packet = 31997
Flit latency average = 19.9046
	minimum = 7
	maximum = 37
Slowest flit = 31989
Fragmentation average = 0
	minimum = 0
	maximum = 0
Injected packet rate average = 0.0100417
	minimum = 0.004 (at node 5)
	maximum = 0.0133333 (at node 6)
Accepted packet rate average = 0.0100417
	minimum = 0.004 (at node 5)
	maximum = 0.0133333 (at node 9)
Injected flit rate average = 0.0100417
	minimum = 0.004 (at node 5)
	maximum = 0.0133333 (at node 6)
Accepted flit rate average= 0.0100417
	minimum = 0.004 (at node 5)
	maximum = 0.0133333 (at node 9)
Injected packet length average = 1
Accepted packet length average = 1
Total in-flight flits = 4 (4 measured)
latency change    = 0.00136295
throughput change = 0.0518672
Class 0:
Packet latency average = 19.5926
	minimum = 7
	maximum = 37
Network latency average = 19.5926
	minimum = 7
	maximum = 37
Slowest packet = 31997
Flit latency average = 19.7439
	minimum = 7
	maximum = 37
Slowest flit = 31989
Fragmentation average = 0
	minimum = 0
	maximum = 0
Injected packet rate average = 0.0101563
	minimum = 0.007 (at node 5)
	maximum = 0.012 (at node 6)
Accepted packet rate average = 0.01025
	minimum = 0.007 (at node 5)
	maximum = 0.012 (at node 9)
Injected flit rate average = 0.0101563
	minimum = 0.007 (at node 5)
	maximum = 0.012 (at node 6)
Accepted flit rate average= 0.01025
	minimum = 0.007 (at node 5)
	maximum = 0.012 (at node 9)
Injected packet length average = 1
Accepted packet length average = 1
Total in-flight flits = 1 (1 measured)
latency change    = 0.00550358
throughput change = 0.0203252
Class 0:
Packet latency average = 19.5815
	minimum = 7
	maximum = 37
Network latency average = 19.5815
	minimum = 7
	maximum = 37
Slowest packet = 31997
Flit latency average = 19.7047
	minimum = 7
	maximum = 37
Slowest flit = 31989
Fragmentation average = 0
	minimum = 0
	maximum = 0
Injected packet rate average = 0.01005
	minimum = 0.0076 (at node 5)
	maximum = 0.0128 (at node 0)
Accepted packet rate average = 0.010075
	minimum = 0.0076 (at node 5)
	maximum = 0.0128 (at node 14)
Injected flit rate average = 0.01005
	minimum = 0.0076 (at node 5)
	maximum = 0.0128 (at node 0)
Accepted flit rate average= 0.010075
	minimum = 0.0076 (at node 5)
	maximum = 0.0128 (at node 14)
Injected packet length average = 1
Accepted packet length average = 1
Total in-flight flits = 3 (3 measured)
latency change    = 0.000568852
throughput change = 0.0173697
Class 0:
Packet latency average = 19.6141
	minimum = 7
	maximum = 37
Network latency average = 19.6141
	minimum = 7
	maximum = 37
Slowest packet = 31997
Flit latency average = 19.716
	minimum = 7
	maximum = 37
Slowest flit = 31989
Fragmentation average = 0
	minimum = 0
	maximum = 0
Injected packet rate average = 0.0100833
	minimum = 0.00766667 (at node 5)
	maximum = 0.012 (at node 0)
Accepted packet rate average = 0.010125
	minimum = 0.00766667 (at node 5)
	maximum = 0.012 (at node 0)
Injected flit rate average = 0.0100833
	minimum = 0.00766667 (at node 5)
	maximum = 0.012 (at node 0)
Accepted flit rate average= 0.010125
	minimum = 0.00766667 (at node 5)
	maximum = 0.012 (at node 0)
Injected packet length average = 1
Accepted packet length average = 1
Total in-flight flits = 2 (2 measured)
latency change    = 0.00166483
throughput change = 0.00493827
Draining all recorded packets ...
Draining remaining packets ...
Time taken is 4545 cycles
Class 0:
Packet latency average = 20.6026
	minimum = 7
	maximum = 38
Network latency average = 20.6026
	minimum = 7
	maximum = 38
Slowest packet = 32495
Flit latency average = 20.6026
	minimum = 7
	maximum = 38
Slowest flit = 32495
Fragmentation average = 0
	minimum = 0
	maximum = 0
Injected packet rate average = 0.010375
	minimum = 0.002 (at node 15)
	maximum = 0.022 (at node 1)
Accepted packet rate average = 0.00975
	minimum = 0.002 (at node 15)
	maximum = 0.022 (at node 4)
Injected flit rate average = 0.010375
	minimum = 0.002 (at node 15)
	maximum = 0.022 (at node 1)
Accepted flit rate average= 0.00975
	minimum = 0.002 (at node 15)
	maximum = 0.022 (at node 4)
Injected packet length average = 1
Accepted packet length average = 1
Total in-flight flits = 5 (0 measured)
latency change    = 1
throughput change = 1
Class 0:
Packet latency average = 19.8494
	minimum = 7
	maximum = 38
Network latency average = 19.8494
	minimum = 7
	maximum = 38
Slowest packet = 32495
Flit latency average = 19.8494
	minimum = 7
	maximum = 38
Slowest flit = 32495
Fragmentation average = 0
	minimum = 0
	maximum = 0
Injected packet rate average = 0.010625
	minimum = 0.004 (at node 15)
	maximum = 0.017 (at node 13)
Accepted packet rate average = 0.010375
	minimum = 0.003 (at node 15)
	maximum = 0.017 (at node 7)
Injected flit rate average = 0.010625
	minimum = 0.004 (at node 15)
	maximum = 0.017 (at node 13)
Accepted flit rate average= 0.010375
	minimum = 0.003 (at node 15)
	maximum = 0.017 (at node 7)
Injected packet length average = 1
Accepted packet length average = 1
Total in-flight flits = 4 (0 measured)
latency change    = 0.037944
throughput change = 0.060241
Class 0:
Packet latency average = 20.1169
	minimum = 7
	maximum = 37
Network latency average = 20.1169
	minimum = 7
	maximum = 37
Slowest packet = 32643
Flit latency average = 20.1169
	minimum = 7
	maximum = 37
Slowest flit = 32643
Fragmentation average = 0
	minimum = 0
	maximum = 0
Injected packet rate average = 0.0095
	minimum = 0.004 (at node 10)
	maximum = 0.02 (at node 8)
Accepted packet rate average = 0.009625
	minimum = 0.006 (at node 5)
	maximum = 0.018 (at node 2)
Injected flit rate average = 0.0095
	minimum = 0.004 (at node 10)
	maximum = 0.02 (at node 8)
Accepted flit rate average= 0.009625
	minimum = 0.006 (at node 5)
	maximum = 0.018 (at node 2)
Injected packet length average = 1
Accepted packet length average = 1
Total in-flight flits = 3 (0 measured)
latency change    = 0.0132966
throughput change = 0.0779221
Warmed up ...Time used is 1500 cycles
Class 0:
Packet latency average = 18.5714
	minimum = 7
	maximum = 37
Network latency average = 18.5714
	minimum = 7
	maximum = 37
Slowest packet = 32743
Flit latency average = 18.6375
	minimum = 7
	maximum = 37
Slowest flit = 32743
Fragmentation average = 0
	minimum = 0
	maximum = 0
Injected packet rate average = 0.01
	minimum = 0.006 (at node 2)
	maximum = 0.016 (at node 13)
Accepted packet rate average = 0.01
	minimum = 0.006 (at node 8)
	maximum = 0.016 (at node 7)
Injected flit rate average = 0.01
	minimum = 0.006 (at node 2)
	maximum = 0.016 (at node 13)
Accepted flit rate average= 0.01
	minimum = 0.006 (at node 8)
	maximum = 0.016 (at node 7)
Injected packet length average = 1
Accepted packet length average = 1
Total in-flight flits = 3 (3 measured)
latency change    = 0.0832168
throughput change = 0.0375
Class 0:
Packet latency average = 18.7018
	minimum = 7
	maximum = 37
Network latency average = 18.7018
	minimum = 7
	maximum = 37
Slowest packet = 32743
Flit latency average = 18.7299
	minimum = 7
	maximum = 37
Slowest flit = 32743
Fragmentation average = 0
	minimum = 0
	maximum = 0
Injected packet rate average = 0.01075
	minimum = 0.006 (at node 9)
	maximum = 0.017 (at node 11)
Accepted packet rate average = 0.010875
	minimum = 0.006 (at node 6)
	maximum = 0.017 (at node 14)
Injected flit rate average = 0.01075
	minimum = 0.006 (at node 9)
	maximum = 0.017 (at node 11)
Accepted flit rate average= 0.010875
	minimum = 0.006 (at node 6)
	maximum = 0.017 (at node 14)
Injected packet length average = 1
Accepted packet length average = 1
Total in-flight flits = 1 (1 measured)
latency change    = 0.00696864
throughput change = 0.0804598
Class 0:
Packet latency average = 18.8367
	minimum = 7
	maximum = 37
Network latency average = 18.8367
	minimum = 7
	maximum = 37
Slowest packet = 32743
Flit latency average = 18.8543
	minimum = 7
	maximum = 37
Slowest flit = 32743
Fragmentation average = 0
	minimum = 0
	maximum = 0
Injected packet rate average = 0.0105833
	minimum = 0.00666667 (at node 2)
	maximum = 0.0153333 (at node 4)
Accepted packet rate average = 0.0105833
	minimum = 0.006 (at node 6)
	maximum = 0.0153333 (at node 1)
Injected flit rate average = 0.0105833
	minimum = 0.00666667 (at node 2)
	maximum = 0.0153333 (at node 4)
Accepted flit rate average= 0.0105833
	minimum = 0.006 (at node 6)
	maximum = 0.0153333 (at node 1)
Injected packet length average = 1
Accepted packet length average = 1
Total in-flight flits = 3 (3 measured)
latency change    = 0.00716152
throughput change = 0.0275591
Class 0:
Packet latency average = 18.7971
	minimum = 7
	maximum = 37
Network latency average = 18.7971
	minimum = 7
	maximum = 37
Slowest packet = 32743
Flit latency average = 18.8105
	minimum = 7
	maximum = 37
Slowest flit = 32743
Fragmentation average = 0
	minimum = 0
	maximum = 0
Injected packet rate average = 0.0107188
	minimum = 0.0065 (at node 8)
	maximum = 0.0145 (at node 14)
Accepted packet rate average = 0.0107188
	minimum = 0.0065 (at node 6)
	maximum = 0.0145 (at node 14)
Injected flit rate average = 0.0107188
	minimum = 0.0065 (at node 8)
	maximum = 0.0145 (at node 14)
Accepted flit rate average= 0.0107188
	minimum = 0.0065 (at node 6)
	maximum = 0.0145 (at node 14)
Injected packet length average = 1
Accepted packet length average = 1
Total in-flight flits = 3 (3 measured)
latency change    = 0.00210642
throughput change = 0.0126336
Class 0:
Packet latency average = 18.6715
	minimum = 7
	maximum = 38
Network latency average = 18.6715
	minimum = 7
	maximum = 38
Slowest packet = 33103
Flit latency average = 18.6835
	minimum = 7
	maximum = 38
Slowest flit = 33103
Fragmentation average = 0
	minimum = 0
	maximum = 0
Injected packet rate average = 0.0105
	minimum = 0.006 (at node 8)
	maximum = 0.014 (at node 10)
Accepted packet rate average = 0.010425
	minimum = 0.0064 (at node 2)
	maximum = 0.014 (at node 10)
Injected flit rate average = 0.0105
	minimum = 0.006 (at node 8)
	maximum = 0.014 (at node 10)
Accepted flit rate average= 0.010425
	minimum = 0.0064 (at node 2)
	maximum = 0.014 (at node 10)
Injected packet length average = 1
Accepted packet length average = 1
Total in-flight flits = 6 (6 measured)
latency change    = 0.00672475
throughput change = 0.0281775
Draining all recorded packets ...
Draining remaining packets ...
Time taken is 4055 cycles
====== Overall Traffic Statistics ======
====== Traffic class 0 ======
Packet latency average = 19.4877 (50 samples)
	minimum = 7 (50 samples)
	maximum = 37.42 (50 samples)
Network latency average = 19.4877 (50 samples)
	minimum = 7 (50 samples)
	maximum = 37.42 (50 samples)
Flit latency average = 19.5208 (50 samples)
	minimum = 7 (50 samples)
	maximum = 37.42 (50 samples)
Fragmentation average = 0 (50 samples)
	minimum = 0 (50 samples)
	maximum = 0 (50 samples)
Injected packet rate average = 0.0100691 (50 samples)
	minimum = 0.00671486 (50 samples)
	maximum = 0.013571 (50 samples)
Accepted packet rate average = 0.0100655 (50 samples)
	minimum = 0.00673514 (50 samples)
	maximum = 0.0135292 (50 samples)
Injected flit rate average = 0.0100691 (50 samples)
	minimum = 0.00671486 (50 samples)
	maximum = 0.013571 (50 samples)
Accepted flit rate average = 0.0100655 (50 samples)
	minimum = 0.00673514 (50 samples)
	maximum = 0.0135292 (50 samples)
Injected packet size average = 1 (50 samples)
Accepted packet size average = 1 (50 samples)
Hops average = 3.49652 (50 samples)
Total run time 3.08911
