BEGIN Configuration File: /tmp/tmpjrt0vxqj.cfg
topology = mesh;
k = 4;
n = 2;
routing_function = planar_adapt;
num_vcs = 4;
vc_buf_size = 4;
wait_for_tail_credit = 1;
vc_allocator = islip;
sw_allocator = islip;
alloc_iters = 1;
credit_delay = 2;
routing_delay = 1;
vc_alloc_delay = 1;
sw_alloc_delay = 1;
input_speedup = 2;
output_speedup = 1;
internal_speedup = 1.0;
traffic = uniform;
packet_size = 1;
sim_type = latency;
injection_rate = 0.05;
warmup_periods = 3;
sample_period = 500;
sim_count = 50;
seed = 1;
link_failures = 7;
fail_seed = 202;

END Configuration File: /tmp/tmpjrt0vxqj.cfg
failure at node 4, channel 2 (1/7)
failure at node 13, channel 0 (2/7)
failure at node 6, channel 1 (3/7)
failure at node 11, channel 3 (4/7)
failure at node 9, channel 2 (5/7)
failure at node 15, channel 3 (6/7)
failure at node 4, channel 3 (7/7)
Class 0:
Packet latency average = 25.5148
	minimum = 7
	maximum = 116
Network latency average = 25.5121
	minimum = 7
	maximum = 116
Slowest packet = 105
Flit latency average = 25.5121
	minimum = 7
	maximum = 116
Slowest flit = 105
Fragmentation average = 0
	minimum = 0
	maximum = 0
Injected packet rate average = 0.049125
	minimum = 0.032 (at node 9)
	maximum = 0.074 (at node 1)
Accepted packet rate average = 0.046375
	minimum = 0.034 (at node 0)
	maximum = 0.064 (at node 9)
Injected flit rate average = 0.049125
	minimum = 0.032 (at node 9)
	maximum = 0.074 (at node 1)
Accepted flit rate average= 0.046375
	minimum = 0.034 (at node 0)
	maximum = 0.064 (at node 9)
Injected packet length average = 1
Accepted packet length average = 1
Total in-flight flits = 22 (0 measured)
latency change    = 1
throughput change = 1
Class 0:
Packet latency average = 25.7945
	minimum = 7
	maximum = 116
Network latency average = 25.7932
	minimum = 7
	maximum = 116
Slowest packet = 105
Flit latency average = 25.7932
	minimum = 7
	maximum = 116
Slowest flit = 105
Fragmentation average = 0
	minimum = 0
	maximum = 0
Injected packet rate average = 0.0505
	minimum = 0.038 (at node 9)
	maximum = 0.073 (at node 1)
Accepted packet rate average = 0.0495625
	minimum = 0.037 (at node 0)
	maximum = 0.063 (at node 9)
Injected flit rate average = 0.0505
	minimum = 0.038 (at node 9)
	maximum = 0.073 (at node 1)
Accepted flit rate average= 0.0495625
	minimum = 0.037 (at node 0)
	maximum = 0.063 (at node 9)
Injected packet length average = 1
Accepted packet length average = 1
Total in-flight flits = 15 (0 measured)
latency change    = 0.0108406
throughput change = 0.0643127
Class 0:
Packet latency average = 26.0099
	minimum = 7
	maximum = 129
Network latency average = 25.9257
	minimum = 7
	maximum = 129
Slowest packet = 990
Flit latency average = 25.9257
	minimum = 7
	maximum = 129
Slowest flit = 990
Fragmentation average = 0
	minimum = 0
	maximum = 0
Injected packet rate average = 0.05
	minimum = 0.032 (at node 10)
	maximum = 0.066 (at node 12)
Accepted packet rate average = 0.0505
	minimum = 0.03 (at node 1)
	maximum = 0.076 (at node 14)
Injected flit rate average = 0.05
	minimum = 0.032 (at node 10)
	maximum = 0.066 (at node 12)
Accepted flit rate average= 0.0505
	minimum = 0.03 (at node 1)
	maximum = 0.076 (at node 14)
Injected packet length average = 1
Accepted packet length average = 1
Total in-flight flits = 11 (0 measured)
latency change    = 0.00828337
throughput change = 0.0185644
Warmed up ...Time used is 1500 cycles
Class 0:
Packet latency average = 23.9902
	minimum = 7
	maximum = 82
Network latency average = 23.9902
	minimum = 7
	maximum = 82
Slowest packet = 1546
Flit latency average = 24.1695
	minimum = 7
	maximum = 82
Slowest flit = 1546
Fragmentation average = 0
	minimum = 0
	maximum = 0
Injected packet rate average = 0.052875
	minimum = 0.036 (at node 11)
	maximum = 0.068 (at node 15)
Accepted packet rate average = 0.052375
	minimum = 0.028 (at node 7)
	maximum = 0.07 (at node 1)
Injected flit rate average = 0.052875
	minimum = 0.036 (at node 11)
	maximum = 0.068 (at node 15)
Accepted flit rate average= 0.052375
	minimum = 0.028 (at node 7)
	maximum = 0.07 (at node 1)
Injected packet length average = 1
Accepted packet length average = 1
Total in-flight flits = 15 (15 measured)
latency change    = 0.0841888
throughput change = 0.0357995
Class 0:
Packet latency average = 24.7591
	minimum = 7
	maximum = 90
Network latency average = 24.7591
	minimum = 7
	maximum = 90
Slowest packet = 1901
Flit latency average = 24.8368
	minimum = 7
	maximum = 90
Slowest flit = 1901
Fragmentation average = 0
	minimum = 0
	maximum = 0
Injected packet rate average = 0.054125
	minimum = 0.04 (at node 11)
	maximum = 0.067 (at node 7)
Accepted packet rate average = 0.053625
	minimum = 0.046 (at node 7)
	maximum = 0.067 (at node 1)
Injected flit rate average = 0.054125
	minimum = 0.04 (at node 11)
	maximum = 0.067 (at node 7)
Accepted flit rate average= 0.053625
	minimum = 0.046 (at node 7)
	maximum = 0.067 (at node 1)
Injected packet length average = 1
Accepted packet length average = 1
Total in-flight flits = 19 (19 measured)
latency change    = 0.0310574
throughput change = 0.02331
Class 0:
Packet latency average = 24.6734
	minimum = 7
	maximum = 90
Network latency average = 24.6734
	minimum = 7
	maximum = 90
Slowest packet = 1901
Flit latency average = 24.7271
	minimum = 7
	maximum = 90
Slowest flit = 1901
Fragmentation average = 0
	minimum = 0
	maximum = 0
Injected packet rate average = 0.0525833
	minimum = 0.0413333 (at node 0)
	maximum = 0.0606667 (at node 7)
Accepted packet rate average = 0.052375
	minimum = 0.0446667 (at node 7)
	maximum = 0.0646667 (at node 1)
Injected flit rate average = 0.0525833
	minimum = 0.0413333 (at node 0)
	maximum = 0.0606667 (at node 7)
Accepted flit rate average= 0.052375
	minimum = 0.0446667 (at node 7)
	maximum = 0.0646667 (at node 1)
Injected packet length average = 1
Accepted packet length average = 1
Total in-flight flits = 16 (16 measured)
latency change    = 0.00347724
throughput change = 0.0238663
Class 0:
Packet latency average = 24.7012
	minimum = 7
	maximum = 90
Network latency average = 24.7012
	minimum = 7
	maximum = 90
Slowest packet = 1901
Flit latency average = 24.7421
	minimum = 7
	maximum = 90
Slowest flit = 1901
Fragmentation average = 0
	minimum = 0
	maximum = 0
Injected packet rate average = 0.051625
	minimum = 0.0405 (at node 0)
	maximum = 0.0615 (at node 1)
Accepted packet rate average = 0.051375
	minimum = 0.044 (at node 4)
	maximum = 0.063 (at node 1)
Injected flit rate average = 0.051625
	minimum = 0.0405 (at node 0)
	maximum = 0.0615 (at node 1)
Accepted flit rate average= 0.051375
	minimum = 0.044 (at node 4)
	maximum = 0.063 (at node 1)
Injected packet length average = 1
Accepted packet length average = 1
Total in-flight flits = 19 (19 measured)
latency change    = 0.00112581
throughput change = 0.0194647
Draining all recorded packets ...
Draining remaining packets ...
Time taken is 3602 cycles
Class 0:
Packet latency average = 29.2475
	minimum = 7
	maximum = 170
Network latency average = 29.1114
	minimum = 7
	maximum = 170
Slowest packet = 3168
Flit latency average = 29.1114
	minimum = 7
	maximum = 170
Slowest flit = 3168
Fragmentation average = 0
	minimum = 0
	maximum = 0
Injected packet rate average = 0.05275
	minimum = 0.038 (at node 3)
	maximum = 0.068 (at node 5)
Accepted packet rate average = 0.0505
	minimum = 0.032 (at node 1)
	maximum = 0.074 (at node 11)
Injected flit rate average = 0.05275
	minimum = 0.038 (at node 3)
	maximum = 0.068 (at node 5)
Accepted flit rate average= 0.0505
	minimum = 0.032 (at node 1)
	maximum = 0.074 (at node 11)
Injected packet length average = 1
Accepted packet length average = 1
Total in-flight flits = 18 (0 measured)
latency change    = 1
throughput change = 1
Class 0:
Packet latency average = 28.9963
	minimum = 7
	maximum = 170
Network latency average = 28.9279
	minimum = 7
	maximum = 170
Slowest packet = 3168
Flit latency average = 28.9279
	minimum = 7
	maximum = 170
Slowest flit = 3168
Fragmentation average = 0
	minimum = 0
	maximum = 0
Injected packet rate average = 0.05225
	minimum = 0.04 (at node 11)
	maximum = 0.069 (at node 2)
Accepted packet rate average = 0.05025
	minimum = 0.036 (at node 6)
	maximum = 0.067 (at node 11)
Injected flit rate average = 0.05225
	minimum = 0.04 (at node 11)
	maximum = 0.069 (at node 2)
Accepted flit rate average= 0.05025
	minimum = 0.036 (at node 6)
	maximum = 0.067 (at node 11)
Injected packet length average = 1
Accepted packet length average = 1
Total in-flight flits = 32 (0 measured)
latency change    = 0.00866512
throughput change = 0.00497512
Class 0:
Packet latency average = 26.7489
	minimum = 7
	maximum = 153
Network latency average = 26.69
	minimum = 7
	maximum = 153
Slowest packet = 3618
Flit latency average = 26.69
	minimum = 7
	maximum = 153
Slowest flit = 3618
Fragmentation average = 0
	minimum = 0
	maximum = 0
Injected packet rate average = 0.055875
	minimum = 0.032 (at node 10)
	maximum = 0.078 (at node 1)
Accepted packet rate average = 0.05725
	minimum = 0.046 (at node 13)
	maximum = 0.076 (at node 15)
Injected flit rate average = 0.055875
	minimum = 0.032 (at node 10)
	maximum = 0.078 (at node 1)
Accepted flit rate average= 0.05725
	minimum = 0.046 (at node 13)
	maximum = 0.076 (at node 15)
Injected packet length average = 1
Accepted packet length average = 1
Total in-flight flits = 21 (0 measured)
latency change    = 0.0840169
throughput change = 0.122271
Warmed up ...Time used is 1500 cycles
Class 0:
Packet latency average = 24.3995
	minimum = 7
	maximum = 81
Network latency average = 24.3995
	minimum = 7
	maximum = 81
Slowest packet = 4279
Flit latency average = 24.9112
	minimum = 7
	maximum = 81
Slowest flit = 4279
Fragmentation average = 0
	minimum = 0
	maximum = 0
Injected packet rate average = 0.049375
	minimum = 0.04 (at node 1)
	maximum = 0.064 (at node 3)
Accepted packet rate average = 0.04925
	minimum = 0.04 (at node 0)
	maximum = 0.066 (at node 2)
Injected flit rate average = 0.049375
	minimum = 0.04 (at node 1)
	maximum = 0.064 (at node 3)
Accepted flit rate average= 0.04925
	minimum = 0.04 (at node 0)
	maximum = 0.066 (at node 2)
Injected packet length average = 1
Accepted packet length average = 1
Total in-flight flits = 22 (22 measured)
latency change    = 0.0962908
throughput change = 0.162437
Class 0:
Packet latency average = 25.5446
	minimum = 7
	maximum = 110
Network latency average = 25.5446
	minimum = 7
	maximum = 110
Slowest packet = 4528
Flit latency average = 25.7683
	minimum = 7
	maximum = 110
Slowest flit = 4528
Fragmentation average = 0
	minimum = 0
	maximum = 0
Injected packet rate average = 0.0495
	minimum = 0.04 (at node 8)
	maximum = 0.062 (at node 5)
Accepted packet rate average = 0.049625
	minimum = 0.038 (at node 5)
	maximum = 0.063 (at node 2)
Injected flit rate average = 0.0495
	minimum = 0.04 (at node 8)
	maximum = 0.062 (at node 5)
Accepted flit rate average= 0.049625
	minimum = 0.038 (at node 5)
	maximum = 0.063 (at node 2)
Injected packet length average = 1
Accepted packet length average = 1
Total in-flight flits = 19 (19 measured)
latency change    = 0.0448301
throughput change = 0.00755668
Class 0:
Packet latency average = 25.2227
	minimum = 7
	maximum = 110
Network latency average = 25.2193
	minimum = 7
	maximum = 110
Slowest packet = 4528
Flit latency average = 25.3738
	minimum = 7
	maximum = 110
Slowest flit = 4528
Fragmentation average = 0
	minimum = 0
	maximum = 0
Injected packet rate average = 0.0496667
	minimum = 0.0393333 (at node 15)
	maximum = 0.0633333 (at node 5)
Accepted packet rate average = 0.0497083
	minimum = 0.04 (at node 7)
	maximum = 0.0626667 (at node 2)
Injected flit rate average = 0.0496667
	minimum = 0.0393333 (at node 15)
	maximum = 0.0633333 (at node 5)
Accepted flit rate average= 0.0497083
	minimum = 0.04 (at node 7)
	maximum = 0.0626667 (at node 2)
Injected packet length average = 1
Accepted packet length average = 1
Total in-flight flits = 20 (20 measured)
latency change    = 0.0127637
throughput change = 0.00167645
Class 0:
Packet latency average = 25.4266
	minimum = 7
	maximum = 110
Network latency average = 25.424
	minimum = 7
	maximum = 110
Slowest packet = 4528
Flit latency average = 25.5375
	minimum = 7
	maximum = 110
Slowest flit = 4528
Fragmentation average = 0
	minimum = 0
	maximum = 0
Injected packet rate average = 0.0494062
	minimum = 0.04 (at node 15)
	maximum = 0.0575 (at node 2)
Accepted packet rate average = 0.0495937
	minimum = 0.0395 (at node 10)
	maximum = 0.0605 (at node 2)
Injected flit rate average = 0.0494062
	minimum = 0.04 (at node 15)
	maximum = 0.0575 (at node 2)
Accepted flit rate average= 0.0495937
	minimum = 0.0395 (at node 10)
	maximum = 0.0605 (at node 2)
Injected packet length average = 1
Accepted packet length average = 1
Total in-flight flits = 15 (15 measured)
latency change    = 0.00801792
throughput change = 0.00231044
Draining all recorded packets ...
Draining remaining packets ...
Time taken is 3575 cycles
Class 0:
Packet latency average = 23.424
	minimum = 7
	maximum = 86
Network latency average = 23.424
	minimum = 7
	maximum = 86
Slowest packet = 5932
Flit latency average = 23.424
	minimum = 7
	maximum = 86
Slowest flit = 5932
Fragmentation average = 0
	minimum = 0
	maximum = 0
Injected packet rate average = 0.04975
	minimum = 0.028 (at node 5)
	maximum = 0.074 (at node 3)
Accepted packet rate average = 0.046875
	minimum = 0.03 (at node 14)
	maximum = 0.064 (at node 15)
Injected flit rate average = 0.04975
	minimum = 0.028 (at node 5)
	maximum = 0.074 (at node 3)
Accepted flit rate average= 0.046875
	minimum = 0.03 (at node 14)
	maximum = 0.064 (at node 15)
Injected packet length average = 1
Accepted packet length average = 1
Total in-flight flits = 23 (0 measured)
latency change    = 1
throughput change = 1
Class 0:
Packet latency average = 24.5458
	minimum = 7
	maximum = 111
Network latency average = 24.5458
	minimum = 7
	maximum = 111
Slowest packet = 6461
Flit latency average = 24.5458
	minimum = 7
	maximum = 111
Slowest flit = 6461
Fragmentation average = 0
	minimum = 0
	maximum = 0
Injected packet rate average = 0.0489375
	minimum = 0.041 (at node 12)
	maximum = 0.061 (at node 4)
Accepted packet rate average = 0.04775
	minimum = 0.037 (at node 9)
	maximum = 0.062 (at node 15)
Injected flit rate average = 0.0489375
	minimum = 0.041 (at node 12)
	maximum = 0.061 (at node 4)
Accepted flit rate average= 0.04775
	minimum = 0.037 (at node 9)
	maximum = 0.062 (at node 15)
Injected packet length average = 1
Accepted packet length average = 1
Total in-flight flits = 19 (0 measured)
latency change    = 0.0457028
throughput change = 0.0183246
Class 0:
Packet latency average = 24.5
	minimum = 7
	maximum = 92
Network latency average = 24.5
	minimum = 7
	maximum = 92
Slowest packet = 6541
Flit latency average = 24.5
	minimum = 7
	maximum = 92
Slowest flit = 6541
Fragmentation average = 0
	minimum = 0
	maximum = 0
Injected packet rate average = 0.050125
	minimum = 0.034 (at node 4)
	maximum = 0.07 (at node 6)
Accepted packet rate average = 0.04875
	minimum = 0.026 (at node 7)
	maximum = 0.076 (at node 10)
Injected flit rate average = 0.050125
	minimum = 0.034 (at node 4)
	maximum = 0.07 (at node 6)
Accepted flit rate average= 0.04875
	minimum = 0.026 (at node 7)
	maximum = 0.076 (at node 10)
Injected packet length average = 1
Accepted packet length average = 1
Total in-flight flits = 30 (0 measured)
latency change    = 0.00186986
throughput change = 0.0205128
Warmed up ...Time used is 1500 cycles
Class 0:
Packet latency average = 23.8072
	minimum = 7
	maximum = 73
Network latency average = 23.8072
	minimum = 7
	maximum = 73
Slowest packet = 7141
Flit latency average = 25.1018
	minimum = 7
	maximum = 77
Slowest flit = 6924
Fragmentation average = 0
	minimum = 0
	maximum = 0
Injected packet rate average = 0.048125
	minimum = 0.04 (at node 10)
	maximum = 0.062 (at node 8)
Accepted packet rate average = 0.049125
	minimum = 0.03 (at node 1)
	maximum = 0.07 (at node 14)
Injected flit rate average = 0.048125
	minimum = 0.04 (at node 10)
	maximum = 0.062 (at node 8)
Accepted flit rate average= 0.049125
	minimum = 0.03 (at node 1)
	maximum = 0.07 (at node 14)
Injected packet length average = 1
Accepted packet length average = 1
Total in-flight flits = 22 (22 measured)
latency change    = 0.0291021
throughput change = 0.00763359
Class 0:
Packet latency average = 24.0487
	minimum = 7
	maximum = 77
Network latency average = 24.0487
	minimum = 7
	maximum = 77
Slowest packet = 7582
Flit latency average = 24.6835
	minimum = 7
	maximum = 77
Slowest flit = 6924
Fragmentation average = 0
	minimum = 0
	maximum = 0
Injected packet rate average = 0.048625
	minimum = 0.039 (at node 3)
	maximum = 0.063 (at node 14)
Accepted packet rate average = 0.049375
	minimum = 0.04 (at node 3)
	maximum = 0.057 (at node 7)
Injected flit rate average = 0.048625
	minimum = 0.039 (at node 3)
	maximum = 0.063 (at node 14)
Accepted flit rate average= 0.049375
	minimum = 0.04 (at node 3)
	maximum = 0.057 (at node 7)
Injected packet length average = 1
Accepted packet length average = 1
Total in-flight flits = 18 (18 measured)
latency change    = 0.010043
throughput change = 0.00506329
Class 0:
Packet latency average = 24.8547
	minimum = 7
	maximum = 92
Network latency average = 24.8512
	minimum = 7
	maximum = 92
Slowest packet = 7803
Flit latency average = 25.2515
	minimum = 7
	maximum = 92
Slowest flit = 7803
Fragmentation average = 0
	minimum = 0
	maximum = 0
Injected packet rate average = 0.04925
	minimum = 0.0373333 (at node 3)
	maximum = 0.0633333 (at node 14)
Accepted packet rate average = 0.0497083
	minimum = 0.042 (at node 3)
	maximum = 0.0586667 (at node 7)
Injected flit rate average = 0.04925
	minimum = 0.0373333 (at node 3)
	maximum = 0.0633333 (at node 14)
Accepted flit rate average= 0.0497083
	minimum = 0.042 (at node 3)
	maximum = 0.0586667 (at node 7)
Injected packet length average = 1
Accepted packet length average = 1
Total in-flight flits = 19 (19 measured)
latency change    = 0.0324286
throughput change = 0.00670578
Draining all recorded packets ...
Draining remaining packets ...
Time taken is 3100 cycles
Class 0:
Packet latency average = 24.656
	minimum = 7
	maximum = 112
Network latency average = 24.6373
	minimum = 7
	maximum = 112
Slowest packet = 8202
Flit latency average = 24.6373
	minimum = 7
	maximum = 112
Slowest flit = 8202
Fragmentation average = 0
	minimum = 0
	maximum = 0
Injected packet rate average = 0.0495
	minimum = 0.036 (at node 8)
	maximum = 0.068 (at node 9)
Accepted packet rate average = 0.046875
	minimum = 0.03 (at node 8)
	maximum = 0.064 (at node 9)
Injected flit rate average = 0.0495
	minimum = 0.036 (at node 8)
	maximum = 0.068 (at node 9)
Accepted flit rate average= 0.046875
	minimum = 0.03 (at node 8)
	maximum = 0.064 (at node 9)
Injected packet length average = 1
Accepted packet length average = 1
Total in-flight flits = 21 (0 measured)
latency change    = 1
throughput change = 1
Class 0:
Packet latency average = 24.8745
	minimum = 7
	maximum = 112
Network latency average = 24.8655
	minimum = 7
	maximum = 112
Slowest packet = 8202
Flit latency average = 24.8655
	minimum = 7
	maximum = 112
Slowest flit = 8202
Fragmentation average = 0
	minimum = 0
	maximum = 0
Injected packet rate average = 0.049375
	minimum = 0.041 (at node 7)
	maximum = 0.06 (at node 9)
Accepted packet rate average = 0.0483125
	minimum = 0.034 (at node 0)
	maximum = 0.062 (at node 9)
Injected flit rate average = 0.049375
	minimum = 0.041 (at node 7)
	maximum = 0.06 (at node 9)
Accepted flit rate average= 0.0483125
	minimum = 0.034 (at node 0)
	maximum = 0.062 (at node 9)
Injected packet length average = 1
Accepted packet length average = 1
Total in-flight flits = 17 (0 measured)
latency change    = 0.00878469
throughput change = 0.0297542
Class 0:
Packet latency average = 25.9091
	minimum = 7
	maximum = 103
Network latency average = 25.9091
	minimum = 7
	maximum = 103
Slowest packet = 9072
Flit latency average = 25.9091
	minimum = 7
	maximum = 103
Slowest flit = 9072
Fragmentation average = 0
	minimum = 0
	maximum = 0
Injected packet rate average = 0.0495
	minimum = 0.036 (at node 15)
	maximum = 0.072 (at node 9)
Accepted packet rate average = 0.048125
	minimum = 0.032 (at node 6)
	maximum = 0.07 (at node 3)
Injected flit rate average = 0.0495
	minimum = 0.036 (at node 15)
	maximum = 0.072 (at node 9)
Accepted flit rate average= 0.048125
	minimum = 0.032 (at node 6)
	maximum = 0.07 (at node 3)
Injected packet length average = 1
Accepted packet length average = 1
Total in-flight flits = 28 (0 measured)
latency change    = 0.039931
throughput change = 0.0038961
Warmed up ...Time used is 1500 cycles
Class 0:
Packet latency average = 27.3876
	minimum = 7
	maximum = 137
Network latency average = 27.3876
	minimum = 7
	maximum = 137
Slowest packet = 9599
Flit latency average = 27.8307
	minimum = 7
	maximum = 137
Slowest flit = 9599
Fragmentation average = 0
	minimum = 0
	maximum = 0
Injected packet rate average = 0.047375
	minimum = 0.03 (at node 11)
	maximum = 0.074 (at node 4)
Accepted packet rate average = 0.048
	minimum = 0.034 (at node 6)
	maximum = 0.062 (at node 0)
Injected flit rate average = 0.047375
	minimum = 0.03 (at node 11)
	maximum = 0.074 (at node 4)
Accepted flit rate average= 0.048
	minimum = 0.034 (at node 6)
	maximum = 0.062 (at node 0)
Injected packet length average = 1
Accepted packet length average = 1
Total in-flight flits = 23 (23 measured)
latency change    = 0.053986
throughput change = 0.00260417
Class 0:
Packet latency average = 26.1152
	minimum = 7
	maximum = 137
Network latency average = 26.1152
	minimum = 7
	maximum = 137
Slowest packet = 9599
Flit latency average = 26.3871
	minimum = 7
	maximum = 137
Slowest flit = 9599
Fragmentation average = 0
	minimum = 0
	maximum = 0
Injected packet rate average = 0.04675
	minimum = 0.037 (at node 11)
	maximum = 0.067 (at node 4)
Accepted packet rate average = 0.0473125
	minimum = 0.038 (at node 12)
	maximum = 0.055 (at node 3)
Injected flit rate average = 0.04675
	minimum = 0.037 (at node 11)
	maximum = 0.067 (at node 4)
Accepted flit rate average= 0.0473125
	minimum = 0.038 (at node 12)
	maximum = 0.055 (at node 3)
Injected packet length average = 1
Accepted packet length average = 1
Total in-flight flits = 19 (19 measured)
latency change    = 0.0487231
throughput change = 0.014531
Class 0:
Packet latency average = 25.9912
	minimum = 7
	maximum = 137
Network latency average = 25.9912
	minimum = 7
	maximum = 137
Slowest packet = 9599
Flit latency average = 26.171
	minimum = 7
	maximum = 137
Slowest flit = 9599
Fragmentation average = 0
	minimum = 0
	maximum = 0
Injected packet rate average = 0.0483333
	minimum = 0.036 (at node 11)
	maximum = 0.0606667 (at node 15)
Accepted packet rate average = 0.0485
	minimum = 0.0386667 (at node 12)
	maximum = 0.054 (at node 6)
Injected flit rate average = 0.0483333
	minimum = 0.036 (at node 11)
	maximum = 0.0606667 (at node 15)
Accepted flit rate average= 0.0485
	minimum = 0.0386667 (at node 12)
	maximum = 0.054 (at node 6)
Injected packet length average = 1
Accepted packet length average = 1
Total in-flight flits = 24 (24 measured)
latency change    = 0.00477197
throughput change = 0.0244845
Class 0:
Packet latency average = 25.609
	minimum = 7
	maximum = 137
Network latency average = 25.609
	minimum = 7
	maximum = 137
Slowest packet = 9599
Flit latency average = 25.7521
	minimum = 7
	maximum = 137
Slowest flit = 9599
Fragmentation average = 0
	minimum = 0
	maximum = 0
Injected packet rate average = 0.0477812
	minimum = 0.0385 (at node 11)
	maximum = 0.055 (at node 4)
Accepted packet rate average = 0.0480312
	minimum = 0.042 (at node 12)
	maximum = 0.054 (at node 3)
Injected flit rate average = 0.0477812
	minimum = 0.0385 (at node 11)
	maximum = 0.055 (at node 4)
Accepted flit rate average= 0.0480312
	minimum = 0.042 (at node 12)
	maximum = 0.054 (at node 3)
Injected packet length average = 1
Accepted packet length average = 1
Total in-flight flits = 20 (20 measured)
latency change    = 0.0149238
throughput change = 0.00975927
Draining all recorded packets ...
Draining remaining packets ...
Time taken is 3576 cycles
Class 0:
Packet latency average = 24.4347
	minimum = 7
	maximum = 85
Network latency average = 24.4347
	minimum = 7
	maximum = 85
Slowest packet = 11105
Flit latency average = 24.4347
	minimum = 7
	maximum = 85
Slowest flit = 11105
Fragmentation average = 0
	minimum = 0
	maximum = 0
Injected packet rate average = 0.047
	minimum = 0.04 (at node 2)
	maximum = 0.054 (at node 12)
Accepted packet rate average = 0.044
	minimum = 0.028 (at node 5)
	maximum = 0.068 (at node 9)
Injected flit rate average = 0.047
	minimum = 0.04 (at node 2)
	maximum = 0.054 (at node 12)
Accepted flit rate average= 0.044
	minimum = 0.028 (at node 5)
	maximum = 0.068 (at node 9)
Injected packet length average = 1
Accepted packet length average = 1
Total in-flight flits = 24 (0 measured)
latency change    = 1
throughput change = 1
Class 0:
Packet latency average = 25.0538
	minimum = 7
	maximum = 93
Network latency average = 25.0538
	minimum = 7
	maximum = 93
Slowest packet = 11502
Flit latency average = 25.0538
	minimum = 7
	maximum = 93
Slowest flit = 11502
Fragmentation average = 0
	minimum = 0
	maximum = 0
Injected packet rate average = 0.0480625
	minimum = 0.041 (at node 1)
	maximum = 0.06 (at node 12)
Accepted packet rate average = 0.0465
	minimum = 0.032 (at node 5)
	maximum = 0.062 (at node 12)
Injected flit rate average = 0.0480625
	minimum = 0.041 (at node 1)
	maximum = 0.06 (at node 12)
Accepted flit rate average= 0.0465
	minimum = 0.032 (at node 5)
	maximum = 0.062 (at node 12)
Injected packet length average = 1
Accepted packet length average = 1
Total in-flight flits = 25 (0 measured)
latency change    = 0.024711
throughput change = 0.0537634
Class 0:
Packet latency average = 29.3566
	minimum = 7
	maximum = 154
Network latency average = 29.3566
	minimum = 7
	maximum = 154
Slowest packet = 11718
Flit latency average = 29.3566
	minimum = 7
	maximum = 154
Slowest flit = 11718
Fragmentation average = 0
	minimum = 0
	maximum = 0
Injected packet rate average = 0.05325
	minimum = 0.038 (at node 3)
	maximum = 0.064 (at node 4)
Accepted packet rate average = 0.053625
	minimum = 0.026 (at node 0)
	maximum = 0.07 (at node 7)
Injected flit rate average = 0.05325
	minimum = 0.038 (at node 3)
	maximum = 0.064 (at node 4)
Accepted flit rate average= 0.053625
	minimum = 0.026 (at node 0)
	maximum = 0.07 (at node 7)
Injected packet length average = 1
Accepted packet length average = 1
Total in-flight flits = 22 (0 measured)
latency change    = 0.146573
throughput change = 0.132867
Warmed up ...Time used is 1500 cycles
Class 0:
Packet latency average = 24.4032
	minimum = 7
	maximum = 93
Network latency average = 24.4032
	minimum = 7
	maximum = 93
Slowest packet = 12328
Flit latency average = 24.8747
	minimum = 7
	maximum = 93
Slowest flit = 12328
Fragmentation average = 0
	minimum = 0
	maximum = 0
Injected packet rate average = 0.048875
	minimum = 0.036 (at node 9)
	maximum = 0.066 (at node 7)
Accepted packet rate average = 0.049875
	minimum = 0.034 (at node 2)
	maximum = 0.068 (at node 6)
Injected flit rate average = 0.048875
	minimum = 0.036 (at node 9)
	maximum = 0.066 (at node 7)
Accepted flit rate average= 0.049875
	minimum = 0.034 (at node 2)
	maximum = 0.068 (at node 6)
Injected packet length average = 1
Accepted packet length average = 1
Total in-flight flits = 14 (14 measured)
latency change    = 0.202984
throughput change = 0.075188
Class 0:
Packet latency average = 24.7737
	minimum = 7
	maximum = 93
Network latency average = 24.7737
	minimum = 7
	maximum = 93
Slowest packet = 12328
Flit latency average = 24.9975
	minimum = 7
	maximum = 93
Slowest flit = 12328
Fragmentation average = 0
	minimum = 0
	maximum = 0
Injected packet rate average = 0.050125
	minimum = 0.042 (at node 9)
	maximum = 0.063 (at node 2)
Accepted packet rate average = 0.05025
	minimum = 0.042 (at node 8)
	maximum = 0.068 (at node 6)
Injected flit rate average = 0.050125
	minimum = 0.042 (at node 9)
	maximum = 0.063 (at node 2)
Accepted flit rate average= 0.05025
	minimum = 0.042 (at node 8)
	maximum = 0.068 (at node 6)
Injected packet length average = 1
Accepted packet length average = 1
Total in-flight flits = 20 (20 measured)
latency change    = 0.0149544
throughput change = 0.00746269
Class 0:
Packet latency average = 24.8079
	minimum = 7
	maximum = 93
Network latency average = 24.8079
	minimum = 7
	maximum = 93
Slowest packet = 12328
Flit latency average = 24.9594
	minimum = 7
	maximum = 93
Slowest flit = 12328
Fragmentation average = 0
	minimum = 0
	maximum = 0
Injected packet rate average = 0.049125
	minimum = 0.044 (at node 9)
	maximum = 0.0646667 (at node 15)
Accepted packet rate average = 0.0492917
	minimum = 0.0393333 (at node 0)
	maximum = 0.0606667 (at node 14)
Injected flit rate average = 0.049125
	minimum = 0.044 (at node 9)
	maximum = 0.0646667 (at node 15)
Accepted flit rate average= 0.0492917
	minimum = 0.0393333 (at node 0)
	maximum = 0.0606667 (at node 14)
Injected packet length average = 1
Accepted packet length average = 1
Total in-flight flits = 18 (18 measured)
latency change    = 0.00138129
throughput change = 0.0194421
Class 0:
Packet latency average = 25.3211
	minimum = 7
	maximum = 109
Network latency average = 25.3192
	minimum = 7
	maximum = 109
Slowest packet = 13500
Flit latency average = 25.4258
	minimum = 7
	maximum = 109
Slowest flit = 13500
Fragmentation average = 0
	minimum = 0
	maximum = 0
Injected packet rate average = 0.0491875
	minimum = 0.044 (at node 8)
	maximum = 0.06 (at node 15)
Accepted packet rate average = 0.04925
	minimum = 0.041 (at node 0)
	maximum = 0.057 (at node 6)
Injected flit rate average = 0.0491875
	minimum = 0.044 (at node 8)
	maximum = 0.06 (at node 15)
Accepted flit rate average= 0.04925
	minimum = 0.041 (at node 0)
	maximum = 0.057 (at node 6)
Injected packet length average = 1
Accepted packet length average = 1
Total in-flight flits = 20 (20 measured)
latency change    = 0.020267
throughput change = 0.000846024
Draining all recorded packets ...
Draining remaining packets ...
Time taken is 3583 cycles
Class 0:
Packet latency average = 23.8932
	minimum = 7
	maximum = 79
Network latency average = 23.8932
	minimum = 7
	maximum = 79
Slowest packet = 13734
Flit latency average = 23.8932
	minimum = 7
	maximum = 79
Slowest flit = 13734
Fragmentation average = 0
	minimum = 0
	maximum = 0
Injected packet rate average = 0.047375
	minimum = 0.028 (at node 8)
	maximum = 0.064 (at node 0)
Accepted packet rate average = 0.045625
	minimum = 0.026 (at node 13)
	maximum = 0.07 (at node 9)
Injected flit rate average = 0.047375
	minimum = 0.028 (at node 8)
	maximum = 0.064 (at node 0)
Accepted flit rate average= 0.045625
	minimum = 0.026 (at node 13)
	maximum = 0.07 (at node 9)
Injected packet length average = 1
Accepted packet length average = 1
Total in-flight flits = 14 (0 measured)
latency change    = 1
throughput change = 1
Class 0:
Packet latency average = 25.4825
	minimum = 7
	maximum = 139
Network latency average = 25.4735
	minimum = 7
	maximum = 139
Slowest packet = 14308
Flit latency average = 25.4735
	minimum = 7
	maximum = 139
Slowest flit = 14308
Fragmentation average = 0
	minimum = 0
	maximum = 0
Injected packet rate average = 0.0493125
	minimum = 0.04 (at node 6)
	maximum = 0.059 (at node 14)
Accepted packet rate average = 0.0483125
	minimum = 0.025 (at node 13)
	maximum = 0.067 (at node 12)
Injected flit rate average = 0.0493125
	minimum = 0.04 (at node 6)
	maximum = 0.059 (at node 14)
Accepted flit rate average= 0.0483125
	minimum = 0.025 (at node 13)
	maximum = 0.067 (at node 12)
Injected packet length average = 1
Accepted packet length average = 1
Total in-flight flits = 16 (0 measured)
latency change    = 0.0623715
throughput change = 0.0556274
Class 0:
Packet latency average = 25.2091
	minimum = 7
	maximum = 88
Network latency average = 25.2091
	minimum = 7
	maximum = 88
Slowest packet = 14719
Flit latency average = 25.2091
	minimum = 7
	maximum = 88
Slowest flit = 14719
Fragmentation average = 0
	minimum = 0
	maximum = 0
Injected packet rate average = 0.05075
	minimum = 0.038 (at node 2)
	maximum = 0.062 (at node 14)
Accepted packet rate average = 0.049625
	minimum = 0.028 (at node 2)
	maximum = 0.072 (at node 9)
Injected flit rate average = 0.05075
	minimum = 0.038 (at node 2)
	maximum = 0.062 (at node 14)
Accepted flit rate average= 0.049625
	minimum = 0.028 (at node 2)
	maximum = 0.072 (at node 9)
Injected packet length average = 1
Accepted packet length average = 1
Total in-flight flits = 25 (0 measured)
latency change    = 0.010848
throughput change = 0.0264484
Warmed up ...Time used is 1500 cycles
Class 0:
Packet latency average = 28.7778
	minimum = 7
	maximum = 144
Network latency average = 28.7424
	minimum = 7
	maximum = 144
Slowest packet = 15035
Flit latency average = 29.5463
	minimum = 7
	maximum = 144
Slowest flit = 15035
Fragmentation average = 0
	minimum = 0
	maximum = 0
Injected packet rate average = 0.053125
	minimum = 0.04 (at node 8)
	maximum = 0.07 (at node 7)
Accepted packet rate average = 0.052625
	minimum = 0.034 (at node 6)
	maximum = 0.074 (at node 4)
Injected flit rate average = 0.053125
	minimum = 0.04 (at node 8)
	maximum = 0.07 (at node 7)
Accepted flit rate average= 0.052625
	minimum = 0.034 (at node 6)
	maximum = 0.074 (at node 4)
Injected packet length average = 1
Accepted packet length average = 1
Total in-flight flits = 29 (29 measured)
latency change    = 0.124009
throughput change = 0.0570071
Class 0:
Packet latency average = 26.9045
	minimum = 7
	maximum = 144
Network latency average = 26.8865
	minimum = 7
	maximum = 144
Slowest packet = 15035
Flit latency average = 27.3675
	minimum = 7
	maximum = 144
Slowest flit = 15035
Fragmentation average = 0
	minimum = 0
	maximum = 0
Injected packet rate average = 0.0494375
	minimum = 0.036 (at node 10)
	maximum = 0.07 (at node 7)
Accepted packet rate average = 0.05
	minimum = 0.032 (at node 2)
	maximum = 0.066 (at node 4)
Injected flit rate average = 0.0494375
	minimum = 0.036 (at node 10)
	maximum = 0.07 (at node 7)
Accepted flit rate average= 0.05
	minimum = 0.032 (at node 2)
	maximum = 0.066 (at node 4)
Injected packet length average = 1
Accepted packet length average = 1
Total in-flight flits = 16 (16 measured)
latency change    = 0.0696263
throughput change = 0.0525
Class 0:
Packet latency average = 27.3867
	minimum = 7
	maximum = 144
Network latency average = 27.3748
	minimum = 7
	maximum = 144
Slowest packet = 15035
Flit latency average = 27.6856
	minimum = 7
	maximum = 144
Slowest flit = 15035
Fragmentation average = 0
	minimum = 0
	maximum = 0
Injected packet rate average = 0.04975
	minimum = 0.038 (at node 8)
	maximum = 0.062 (at node 7)
Accepted packet rate average = 0.0499583
	minimum = 0.0373333 (at node 2)
	maximum = 0.056 (at node 13)
Injected flit rate average = 0.04975
	minimum = 0.038 (at node 8)
	maximum = 0.062 (at node 7)
Accepted flit rate average= 0.0499583
	minimum = 0.0373333 (at node 2)
	maximum = 0.056 (at node 13)
Injected packet length average = 1
Accepted packet length average = 1
Total in-flight flits = 20 (20 measured)
latency change    = 0.0176069
throughput change = 0.000834028
Class 0:
Packet latency average = 26.9818
	minimum = 7
	maximum = 144
Network latency average = 26.9731
	minimum = 7
	maximum = 144
Slowest packet = 15035
Flit latency average = 27.2091
	minimum = 7
	maximum = 144
Slowest flit = 15035
Fragmentation average = 0
	minimum = 0
	maximum = 0
Injected packet rate average = 0.0505
	minimum = 0.0385 (at node 8)
	maximum = 0.063 (at node 7)
Accepted packet rate average = 0.0506562
	minimum = 0.0435 (at node 2)
	maximum = 0.0575 (at node 11)
Injected flit rate average = 0.0505
	minimum = 0.0385 (at node 8)
	maximum = 0.063 (at node 7)
Accepted flit rate average= 0.0506562
	minimum = 0.0435 (at node 2)
	maximum = 0.0575 (at node 11)
Injected packet length average = 1
Accepted packet length average = 1
Total in-flight flits = 20 (20 measured)
latency change    = 0.0150057
throughput change = 0.0137775
Class 0:
Packet latency average = 26.4797
	minimum = 7
	maximum = 144
Network latency average = 26.4726
	minimum = 7
	maximum = 144
Slowest packet = 15035
Flit latency average = 26.6708
	minimum = 7
	maximum = 144
Slowest flit = 15035
Fragmentation average = 0
	minimum = 0
	maximum = 0
Injected packet rate average = 0.049775
	minimum = 0.04 (at node 3)
	maximum = 0.0584 (at node 7)
Accepted packet rate average = 0.049825
	minimum = 0.042 (at node 2)
	maximum = 0.0556 (at node 13)
Injected flit rate average = 0.049775
	minimum = 0.04 (at node 3)
	maximum = 0.0584 (at node 7)
Accepted flit rate average= 0.049825
	minimum = 0.042 (at node 2)
	maximum = 0.0556 (at node 13)
Injected packet length average = 1
Accepted packet length average = 1
Total in-flight flits = 23 (23 measured)
latency change    = 0.0189638
throughput change = 0.0166834
Draining all recorded packets ...
Draining remaining packets ...
Time taken is 4089 cycles
Class 0:
Packet latency average = 34.8312
	minimum = 7
	maximum = 208
Network latency average = 34.399
	minimum = 7
	maximum = 208
Slowest packet = 17171
Flit latency average = 34.399
	minimum = 7
	maximum = 208
Slowest flit = 17171
Fragmentation average = 0
	minimum = 0
	maximum = 0
Injected packet rate average = 0.0515
	minimum = 0.024 (at node 6)
	maximum = 0.074 (at node 15)
Accepted packet rate average = 0.048875
	minimum = 0.03 (at node 12)
	maximum = 0.07 (at node 6)
Injected flit rate average = 0.0515
	minimum = 0.024 (at node 6)
	maximum = 0.074 (at node 15)
Accepted flit rate average= 0.048875
	minimum = 0.03 (at node 12)
	maximum = 0.07 (at node 6)
Injected packet length average = 1
Accepted packet length average = 1
Total in-flight flits = 21 (0 measured)
latency change    = 1
throughput change = 1
Class 0:
Packet latency average = 30.3912
	minimum = 7
	maximum = 226
Network latency average = 30.1212
	minimum = 7
	maximum = 226
Slowest packet = 17203
Flit latency average = 30.1212
	minimum = 7
	maximum = 226
Slowest flit = 17203
Fragmentation average = 0
	minimum = 0
	maximum = 0
Injected packet rate average = 0.05175
	minimum = 0.037 (at node 6)
	maximum = 0.062 (at node 15)
Accepted packet rate average = 0.05
	minimum = 0.034 (at node 10)
	maximum = 0.062 (at node 2)
Injected flit rate average = 0.05175
	minimum = 0.037 (at node 6)
	maximum = 0.062 (at node 15)
Accepted flit rate average= 0.05
	minimum = 0.034 (at node 10)
	maximum = 0.062 (at node 2)
Injected packet length average = 1
Accepted packet length average = 1
Total in-flight flits = 28 (0 measured)
latency change    = 0.146093
throughput change = 0.0225
Class 0:
Packet latency average = 26.0363
	minimum = 7
	maximum = 127
Network latency average = 26.0363
	minimum = 7
	maximum = 127
Slowest packet = 17750
Flit latency average = 26.0363
	minimum = 7
	maximum = 127
Slowest flit = 17750
Fragmentation average = 0
	minimum = 0
	maximum = 0
Injected packet rate average = 0.0505
	minimum = 0.036 (at node 11)
	maximum = 0.07 (at node 4)
Accepted packet rate average = 0.051625
	minimum = 0.026 (at node 4)
	maximum = 0.07 (at node 6)
Injected flit rate average = 0.0505
	minimum = 0.036 (at node 11)
	maximum = 0.07 (at node 4)
Accepted flit rate average= 0.051625
	minimum = 0.026 (at node 4)
	maximum = 0.07 (at node 6)
Injected packet length average = 1
Accepted packet length average = 1
Total in-flight flits = 19 (0 measured)
latency change    = 0.167264
throughput change = 0.031477
Warmed up ...Time used is 1500 cycles
Class 0:
Packet latency average = 24.9685
	minimum = 7
	maximum = 93
Network latency average = 24.9685
	minimum = 7
	maximum = 93
Slowest packet = 18479
Flit latency average = 25.1549
	minimum = 7
	maximum = 93
Slowest flit = 18479
Fragmentation average = 0
	minimum = 0
	maximum = 0
Injected packet rate average = 0.0465
	minimum = 0.03 (at node 0)
	maximum = 0.056 (at node 2)
Accepted packet rate average = 0.046
	minimum = 0.032 (at node 0)
	maximum = 0.066 (at node 8)
Injected flit rate average = 0.0465
	minimum = 0.03 (at node 0)
	maximum = 0.056 (at node 2)
Accepted flit rate average= 0.046
	minimum = 0.032 (at node 0)
	maximum = 0.066 (at node 8)
Injected packet length average = 1
Accepted packet length average = 1
Total in-flight flits = 23 (23 measured)
latency change    = 0.0427674
throughput change = 0.122283
Class 0:
Packet latency average = 26.2619
	minimum = 7
	maximum = 114
Network latency average = 26.2026
	minimum = 7
	maximum = 114
Slowest packet = 18744
Flit latency average = 26.2594
	minimum = 7
	maximum = 114
Slowest flit = 18744
Fragmentation average = 0
	minimum = 0
	maximum = 0
Injected packet rate average = 0.049875
	minimum = 0.037 (at node 0)
	maximum = 0.057 (at node 2)
Accepted packet rate average = 0.049625
	minimum = 0.042 (at node 15)
	maximum = 0.058 (at node 8)
Injected flit rate average = 0.049875
	minimum = 0.037 (at node 0)
	maximum = 0.057 (at node 2)
Accepted flit rate average= 0.049625
	minimum = 0.042 (at node 15)
	maximum = 0.058 (at node 8)
Injected packet length average = 1
Accepted packet length average = 1
Total in-flight flits = 23 (23 measured)
latency change    = 0.049252
throughput change = 0.0730479
Class 0:
Packet latency average = 25.9228
	minimum = 7
	maximum = 114
Network latency average = 25.87
	minimum = 7
	maximum = 114
Slowest packet = 18744
Flit latency average = 25.9125
	minimum = 7
	maximum = 114
Slowest flit = 18744
Fragmentation average = 0
	minimum = 0
	maximum = 0
Injected packet rate average = 0.0506667
	minimum = 0.0346667 (at node 0)
	maximum = 0.0606667 (at node 2)
Accepted packet rate average = 0.0504583
	minimum = 0.0413333 (at node 15)
	maximum = 0.0586667 (at node 8)
Injected flit rate average = 0.0506667
	minimum = 0.0346667 (at node 0)
	maximum = 0.0606667 (at node 2)
Accepted flit rate average= 0.0504583
	minimum = 0.0413333 (at node 15)
	maximum = 0.0586667 (at node 8)
Injected packet length average = 1
Accepted packet length average = 1
Total in-flight flits = 24 (24 measured)
latency change    = 0.0130818
throughput change = 0.0165153
Class 0:
Packet latency average = 26.3179
	minimum = 7
	maximum = 114
Network latency average = 26.2791
	minimum = 7
	maximum = 114
Slowest packet = 18744
Flit latency average = 26.3057
	minimum = 7
	maximum = 114
Slowest flit = 18744
Fragmentation average = 0
	minimum = 0
	maximum = 0
Injected packet rate average = 0.0514063
	minimum = 0.0415 (at node 0)
	maximum = 0.062 (at node 5)
Accepted packet rate average = 0.0513125
	minimum = 0.0425 (at node 13)
	maximum = 0.0585 (at node 8)
Injected flit rate average = 0.0514063
	minimum = 0.0415 (at node 0)
	maximum = 0.062 (at node 5)
Accepted flit rate average= 0.0513125
	minimum = 0.0425 (at node 13)
	maximum = 0.0585 (at node 8)
Injected packet length average = 1
Accepted packet length average = 1
Total in-flight flits = 22 (22 measured)
latency change    = 0.015013
throughput change = 0.0166464
Class 0:
Packet latency average = 26.8795
	minimum = 7
	maximum = 129
Network latency average = 26.8482
	minimum = 7
	maximum = 129
Slowest packet = 19780
Flit latency average = 26.8644
	minimum = 7
	maximum = 129
Slowest flit = 19780
Fragmentation average = 0
	minimum = 0
	maximum = 0
Injected packet rate average = 0.05065
	minimum = 0.0436 (at node 0)
	maximum = 0.0604 (at node 5)
Accepted packet rate average = 0.0507
	minimum = 0.0424 (at node 13)
	maximum = 0.058 (at node 8)
Injected flit rate average = 0.05065
	minimum = 0.0436 (at node 0)
	maximum = 0.0604 (at node 5)
Accepted flit rate average= 0.0507
	minimum = 0.0424 (at node 13)
	maximum = 0.058 (at node 8)
Injected packet length average = 1
Accepted packet length average = 1
Total in-flight flits = 17 (17 measured)
latency change    = 0.0208937
throughput change = 0.0120809
Draining all recorded packets ...
Draining remaining packets ...
Time taken is 4087 cycles
Class 0:
Packet latency average = 26.6705
	minimum = 7
	maximum = 93
Network latency average = 26.6705
	minimum = 7
	maximum = 93
Slowest packet = 20538
Flit latency average = 26.6705
	minimum = 7
	maximum = 93
Slowest flit = 20538
Fragmentation average = 0
	minimum = 0
	maximum = 0
Injected packet rate average = 0.048375
	minimum = 0.03 (at node 4)
	maximum = 0.08 (at node 10)
Accepted packet rate average = 0.04325
	minimum = 0.022 (at node 14)
	maximum = 0.06 (at node 3)
Injected flit rate average = 0.048375
	minimum = 0.03 (at node 4)
	maximum = 0.08 (at node 10)
Accepted flit rate average= 0.04325
	minimum = 0.022 (at node 14)
	maximum = 0.06 (at node 3)
Injected packet length average = 1
Accepted packet length average = 1
Total in-flight flits = 41 (0 measured)
latency change    = 1
throughput change = 1
Class 0:
Packet latency average = 28.0665
	minimum = 7
	maximum = 169
Network latency average = 28.0626
	minimum = 7
	maximum = 169
Slowest packet = 20522
Flit latency average = 28.0626
	minimum = 7
	maximum = 169
Slowest flit = 20522
Fragmentation average = 0
	minimum = 0
	maximum = 0
Injected packet rate average = 0.049
	minimum = 0.037 (at node 6)
	maximum = 0.077 (at node 10)
Accepted packet rate average = 0.0479375
	minimum = 0.036 (at node 14)
	maximum = 0.058 (at node 3)
Injected flit rate average = 0.049
	minimum = 0.037 (at node 6)
	maximum = 0.077 (at node 10)
Accepted flit rate average= 0.0479375
	minimum = 0.036 (at node 14)
	maximum = 0.058 (at node 3)
Injected packet length average = 1
Accepted packet length average = 1
Total in-flight flits = 17 (0 measured)
latency change    = 0.049738
throughput change = 0.0977836
Class 0:
Packet latency average = 26.1134
	minimum = 7
	maximum = 96
Network latency average = 26.1134
	minimum = 7
	maximum = 96
Slowest packet = 21093
Flit latency average = 26.1134
	minimum = 7
	maximum = 96
Slowest flit = 21093
Fragmentation average = 0
	minimum = 0
	maximum = 0
Injected packet rate average = 0.056125
	minimum = 0.034 (at node 15)
	maximum = 0.078 (at node 6)
Accepted packet rate average = 0.055125
	minimum = 0.042 (at node 9)
	maximum = 0.068 (at node 7)
Injected flit rate average = 0.056125
	minimum = 0.034 (at node 15)
	maximum = 0.078 (at node 6)
Accepted flit rate average= 0.055125
	minimum = 0.042 (at node 9)
	maximum = 0.068 (at node 7)
Injected packet length average = 1
Accepted packet length average = 1
Total in-flight flits = 25 (0 measured)
latency change    = 0.0747936
throughput change = 0.130385
Warmed up ...Time used is 1500 cycles
Class 0:
Packet latency average = 25.3379
	minimum = 7
	maximum = 89
Network latency average = 25.3379
	minimum = 7
	maximum = 89
Slowest packet = 21487
Flit latency average = 26.838
	minimum = 7
	maximum = 89
Slowest flit = 21487
Fragmentation average = 0
	minimum = 0
	maximum = 0
Injected packet rate average = 0.048375
	minimum = 0.032 (at node 14)
	maximum = 0.058 (at node 5)
Accepted packet rate average = 0.048625
	minimum = 0.034 (at node 1)
	maximum = 0.07 (at node 9)
Injected flit rate average = 0.048375
	minimum = 0.032 (at node 14)
	maximum = 0.058 (at node 5)
Accepted flit rate average= 0.048625
	minimum = 0.034 (at node 1)
	maximum = 0.07 (at node 9)
Injected packet length average = 1
Accepted packet length average = 1
Total in-flight flits = 23 (23 measured)
latency change    = 0.030605
throughput change = 0.133676
Class 0:
Packet latency average = 26.2832
	minimum = 7
	maximum = 103
Network latency average = 26.2832
	minimum = 7
	maximum = 103
Slowest packet = 22198
Flit latency average = 26.9694
	minimum = 7
	maximum = 103
Slowest flit = 22198
Fragmentation average = 0
	minimum = 0
	maximum = 0
Injected packet rate average = 0.050375
	minimum = 0.039 (at node 1)
	maximum = 0.063 (at node 11)
Accepted packet rate average = 0.051
	minimum = 0.043 (at node 4)
	maximum = 0.062 (at node 9)
Injected flit rate average = 0.050375
	minimum = 0.039 (at node 1)
	maximum = 0.063 (at node 11)
Accepted flit rate average= 0.051
	minimum = 0.043 (at node 4)
	maximum = 0.062 (at node 9)
Injected packet length average = 1
Accepted packet length average = 1
Total in-flight flits = 15 (15 measured)
latency change    = 0.035965
throughput change = 0.0465686
Class 0:
Packet latency average = 26.3844
	minimum = 7
	maximum = 134
Network latency average = 26.3844
	minimum = 7
	maximum = 134
Slowest packet = 22560
Flit latency average = 26.8485
	minimum = 7
	maximum = 134
Slowest flit = 22560
Fragmentation average = 0
	minimum = 0
	maximum = 0
Injected packet rate average = 0.0497917
	minimum = 0.0386667 (at node 12)
	maximum = 0.0646667 (at node 11)
Accepted packet rate average = 0.0500417
	minimum = 0.044 (at node 5)
	maximum = 0.058 (at node 7)
Injected flit rate average = 0.0497917
	minimum = 0.0386667 (at node 12)
	maximum = 0.0646667 (at node 11)
Accepted flit rate average= 0.0500417
	minimum = 0.044 (at node 5)
	maximum = 0.058 (at node 7)
Injected packet length average = 1
Accepted packet length average = 1
Total in-flight flits = 19 (19 measured)
latency change    = 0.00383439
throughput change = 0.0191507
Class 0:
Packet latency average = 26.0323
	minimum = 7
	maximum = 134
Network latency average = 26.0323
	minimum = 7
	maximum = 134
Slowest packet = 22560
Flit latency average = 26.3858
	minimum = 7
	maximum = 134
Slowest flit = 22560
Fragmentation average = 0
	minimum = 0
	maximum = 0
Injected packet rate average = 0.049875
	minimum = 0.043 (at node 12)
	maximum = 0.062 (at node 11)
Accepted packet rate average = 0.0500625
	minimum = 0.0425 (at node 5)
	maximum = 0.057 (at node 7)
Injected flit rate average = 0.049875
	minimum = 0.043 (at node 12)
	maximum = 0.062 (at node 11)
Accepted flit rate average= 0.0500625
	minimum = 0.0425 (at node 5)
	maximum = 0.057 (at node 7)
Injected packet length average = 1
Accepted packet length average = 1
Total in-flight flits = 19 (19 measured)
latency change    = 0.0135222
throughput change = 0.000416146
Draining all recorded packets ...
Draining remaining packets ...
Time taken is 3568 cycles
Class 0:
Packet latency average = 25.8416
	minimum = 7
	maximum = 106
Network latency average = 25.8416
	minimum = 7
	maximum = 106
Slowest packet = 23214
Flit latency average = 25.8416
	minimum = 7
	maximum = 106
Slowest flit = 23214
Fragmentation average = 0
	minimum = 0
	maximum = 0
Injected packet rate average = 0.050875
	minimum = 0.034 (at node 10)
	maximum = 0.062 (at node 7)
Accepted packet rate average = 0.048125
	minimum = 0.038 (at node 1)
	maximum = 0.058 (at node 2)
Injected flit rate average = 0.050875
	minimum = 0.034 (at node 10)
	maximum = 0.062 (at node 7)
Accepted flit rate average= 0.048125
	minimum = 0.038 (at node 1)
	maximum = 0.058 (at node 2)
Injected packet length average = 1
Accepted packet length average = 1
Total in-flight flits = 22 (0 measured)
latency change    = 1
throughput change = 1
Class 0:
Packet latency average = 26.2203
	minimum = 7
	maximum = 112
Network latency average = 26.2203
	minimum = 7
	maximum = 112
Slowest packet = 23502
Flit latency average = 26.2203
	minimum = 7
	maximum = 112
Slowest flit = 23502
Fragmentation average = 0
	minimum = 0
	maximum = 0
Injected packet rate average = 0.0523125
	minimum = 0.035 (at node 10)
	maximum = 0.064 (at node 7)
Accepted packet rate average = 0.0510625
	minimum = 0.042 (at node 8)
	maximum = 0.06 (at node 6)
Injected flit rate average = 0.0523125
	minimum = 0.035 (at node 10)
	maximum = 0.064 (at node 7)
Accepted flit rate average= 0.0510625
	minimum = 0.042 (at node 8)
	maximum = 0.06 (at node 6)
Injected packet length average = 1
Accepted packet length average = 1
Total in-flight flits = 20 (0 measured)
latency change    = 0.0144453
throughput change = 0.0575275
Class 0:
Packet latency average = 28.5792
	minimum = 7
	maximum = 166
Network latency average = 28.5679
	minimum = 7
	maximum = 166
Slowest packet = 24160
Flit latency average = 28.5679
	minimum = 7
	maximum = 166
Slowest flit = 24160
Fragmentation average = 0
	minimum = 0
	maximum = 0
Injected packet rate average = 0.055375
	minimum = 0.042 (at node 1)
	maximum = 0.072 (at node 3)
Accepted packet rate average = 0.05525
	minimum = 0.044 (at node 12)
	maximum = 0.07 (at node 10)
Injected flit rate average = 0.055375
	minimum = 0.042 (at node 1)
	maximum = 0.072 (at node 3)
Accepted flit rate average= 0.05525
	minimum = 0.044 (at node 12)
	maximum = 0.07 (at node 10)
Injected packet length average = 1
Accepted packet length average = 1
Total in-flight flits = 21 (0 measured)
latency change    = 0.0825379
throughput change = 0.0757919
Warmed up ...Time used is 1500 cycles
Class 0:
Packet latency average = 26.0048
	minimum = 7
	maximum = 98
Network latency average = 26.0048
	minimum = 7
	maximum = 98
Slowest packet = 24431
Flit latency average = 26.3699
	minimum = 7
	maximum = 98
Slowest flit = 24431
Fragmentation average = 0
	minimum = 0
	maximum = 0
Injected packet rate average = 0.0545
	minimum = 0.042 (at node 5)
	maximum = 0.07 (at node 2)
Accepted packet rate average = 0.05475
	minimum = 0.04 (at node 8)
	maximum = 0.064 (at node 5)
Injected flit rate average = 0.0545
	minimum = 0.042 (at node 5)
	maximum = 0.07 (at node 2)
Accepted flit rate average= 0.05475
	minimum = 0.04 (at node 8)
	maximum = 0.064 (at node 5)
Injected packet length average = 1
Accepted packet length average = 1
Total in-flight flits = 19 (19 measured)
latency change    = 0.0989967
throughput change = 0.00913242
Class 0:
Packet latency average = 25.422
	minimum = 7
	maximum = 98
Network latency average = 25.422
	minimum = 7
	maximum = 98
Slowest packet = 24431
Flit latency average = 25.6266
	minimum = 7
	maximum = 98
Slowest flit = 24431
Fragmentation average = 0
	minimum = 0
	maximum = 0
Injected packet rate average = 0.0521875
	minimum = 0.041 (at node 5)
	maximum = 0.061 (at node 14)
Accepted packet rate average = 0.0525625
	minimum = 0.043 (at node 9)
	maximum = 0.06 (at node 11)
Injected flit rate average = 0.0521875
	minimum = 0.041 (at node 5)
	maximum = 0.061 (at node 14)
Accepted flit rate average= 0.0525625
	minimum = 0.043 (at node 9)
	maximum = 0.06 (at node 11)
Injected packet length average = 1
Accepted packet length average = 1
Total in-flight flits = 15 (15 measured)
latency change    = 0.0229268
throughput change = 0.0416171
Class 0:
Packet latency average = 25.9509
	minimum = 7
	maximum = 99
Network latency average = 25.9509
	minimum = 7
	maximum = 99
Slowest packet = 25356
Flit latency average = 26.0826
	minimum = 7
	maximum = 99
Slowest flit = 25356
Fragmentation average = 0
	minimum = 0
	maximum = 0
Injected packet rate average = 0.051
	minimum = 0.0413333 (at node 5)
	maximum = 0.0606667 (at node 13)
Accepted packet rate average = 0.0509583
	minimum = 0.0426667 (at node 9)
	maximum = 0.0593333 (at node 6)
Injected flit rate average = 0.051
	minimum = 0.0413333 (at node 5)
	maximum = 0.0606667 (at node 13)
Accepted flit rate average= 0.0509583
	minimum = 0.0426667 (at node 9)
	maximum = 0.0593333 (at node 6)
Injected packet length average = 1
Accepted packet length average = 1
Total in-flight flits = 22 (22 measured)
latency change    = 0.0203832
throughput change = 0.03148
Class 0:
Packet latency average = 26.0044
	minimum = 7
	maximum = 99
Network latency average = 26.0044
	minimum = 7
	maximum = 99
Slowest packet = 25356
Flit latency average = 26.1028
	minimum = 7
	maximum = 99
Slowest flit = 25356
Fragmentation average = 0
	minimum = 0
	maximum = 0
Injected packet rate average = 0.0509688
	minimum = 0.0405 (at node 5)
	maximum = 0.0625 (at node 13)
Accepted packet rate average = 0.0507812
	minimum = 0.0405 (at node 14)
	maximum = 0.0585 (at node 6)
Injected flit rate average = 0.0509688
	minimum = 0.0405 (at node 5)
	maximum = 0.0625 (at node 13)
Accepted flit rate average= 0.0507812
	minimum = 0.0405 (at node 14)
	maximum = 0.0585 (at node 6)
Injected packet length average = 1
Accepted packet length average = 1
Total in-flight flits = 27 (27 measured)
latency change    = 0.00205538
throughput change = 0.00348718
Draining all recorded packets ...
Draining remaining packets ...
Time taken is 3621 cycles
Class 0:
Packet latency average = 26.2392
	minimum = 7
	maximum = 131
Network latency average = 26.2392
	minimum = 7
	maximum = 131
Slowest packet = 26316
Flit latency average = 26.2392
	minimum = 7
	maximum = 131
Slowest flit = 26316
Fragmentation average = 0
	minimum = 0
	maximum = 0
Injected packet rate average = 0.052125
	minimum = 0.034 (at node 10)
	maximum = 0.068 (at node 8)
Accepted packet rate average = 0.049125
	minimum = 0.036 (at node 0)
	maximum = 0.064 (at node 11)
Injected flit rate average = 0.052125
	minimum = 0.034 (at node 10)
	maximum = 0.068 (at node 8)
Accepted flit rate average= 0.049125
	minimum = 0.036 (at node 0)
	maximum = 0.064 (at node 11)
Injected packet length average = 1
Accepted packet length average = 1
Total in-flight flits = 24 (0 measured)
latency change    = 1
throughput change = 1
Class 0:
Packet latency average = 25.7217
	minimum = 7
	maximum = 131
Network latency average = 25.7217
	minimum = 7
	maximum = 131
Slowest packet = 26316
Flit latency average = 25.7217
	minimum = 7
	maximum = 131
Slowest flit = 26316
Fragmentation average = 0
	minimum = 0
	maximum = 0
Injected packet rate average = 0.0499375
	minimum = 0.041 (at node 2)
	maximum = 0.062 (at node 15)
Accepted packet rate average = 0.0480625
	minimum = 0.032 (at node 0)
	maximum = 0.065 (at node 5)
Injected flit rate average = 0.0499375
	minimum = 0.041 (at node 2)
	maximum = 0.062 (at node 15)
Accepted flit rate average= 0.0480625
	minimum = 0.032 (at node 0)
	maximum = 0.065 (at node 5)
Injected packet length average = 1
Accepted packet length average = 1
Total in-flight flits = 30 (0 measured)
latency change    = 0.020118
throughput change = 0.0221066
Class 0:
Packet latency average = 26.9068
	minimum = 7
	maximum = 128
Network latency average = 26.9068
	minimum = 7
	maximum = 128
Slowest packet = 26835
Flit latency average = 26.9068
	minimum = 7
	maximum = 128
Slowest flit = 26835
Fragmentation average = 0
	minimum = 0
	maximum = 0
Injected packet rate average = 0.054
	minimum = 0.04 (at node 7)
	maximum = 0.08 (at node 8)
Accepted packet rate average = 0.053625
	minimum = 0.034 (at node 0)
	maximum = 0.064 (at node 5)
Injected flit rate average = 0.054
	minimum = 0.04 (at node 7)
	maximum = 0.08 (at node 8)
Accepted flit rate average= 0.053625
	minimum = 0.034 (at node 0)
	maximum = 0.064 (at node 5)
Injected packet length average = 1
Accepted packet length average = 1
Total in-flight flits = 33 (0 measured)
latency change    = 0.0440426
throughput change = 0.10373
Warmed up ...Time used is 1500 cycles
Class 0:
Packet latency average = 25.0428
	minimum = 7
	maximum = 103
Network latency average = 25.0428
	minimum = 7
	maximum = 103
Slowest packet = 27317
Flit latency average = 26.2015
	minimum = 7
	maximum = 103
Slowest flit = 27317
Fragmentation average = 0
	minimum = 0
	maximum = 0
Injected packet rate average = 0.04975
	minimum = 0.034 (at node 6)
	maximum = 0.062 (at node 11)
Accepted packet rate average = 0.050875
	minimum = 0.036 (at node 7)
	maximum = 0.088 (at node 5)
Injected flit rate average = 0.04975
	minimum = 0.034 (at node 6)
	maximum = 0.062 (at node 11)
Accepted flit rate average= 0.050875
	minimum = 0.036 (at node 7)
	maximum = 0.088 (at node 5)
Injected packet length average = 1
Accepted packet length average = 1
Total in-flight flits = 24 (24 measured)
latency change    = 0.0744318
throughput change = 0.0540541
Class 0:
Packet latency average = 25.5363
	minimum = 7
	maximum = 123
Network latency average = 25.5363
	minimum = 7
	maximum = 123
Slowest packet = 27702
Flit latency average = 26.1019
	minimum = 7
	maximum = 123
Slowest flit = 27702
Fragmentation average = 0
	minimum = 0
	maximum = 0
Injected packet rate average = 0.049625
	minimum = 0.04 (at node 6)
	maximum = 0.071 (at node 11)
Accepted packet rate average = 0.0503125
	minimum = 0.039 (at node 6)
	maximum = 0.069 (at node 5)
Injected flit rate average = 0.049625
	minimum = 0.04 (at node 6)
	maximum = 0.071 (at node 11)
Accepted flit rate average= 0.0503125
	minimum = 0.039 (at node 6)
	maximum = 0.069 (at node 5)
Injected packet length average = 1
Accepted packet length average = 1
Total in-flight flits = 22 (22 measured)
latency change    = 0.019325
throughput change = 0.0111801
Class 0:
Packet latency average = 26.2764
	minimum = 7
	maximum = 136
Network latency average = 26.2764
	minimum = 7
	maximum = 136
Slowest packet = 28260
Flit latency average = 26.6328
	minimum = 7
	maximum = 136
Slowest flit = 28260
Fragmentation average = 0
	minimum = 0
	maximum = 0
Injected packet rate average = 0.0499167
	minimum = 0.0386667 (at node 9)
	maximum = 0.0646667 (at node 11)
Accepted packet rate average = 0.050375
	minimum = 0.042 (at node 6)
	maximum = 0.064 (at node 5)
Injected flit rate average = 0.0499167
	minimum = 0.0386667 (at node 9)
	maximum = 0.0646667 (at node 11)
Accepted flit rate average= 0.050375
	minimum = 0.042 (at node 6)
	maximum = 0.064 (at node 5)
Injected packet length average = 1
Accepted packet length average = 1
Total in-flight flits = 22 (22 measured)
latency change    = 0.0281657
throughput change = 0.00124069
Class 0:
Packet latency average = 25.8754
	minimum = 7
	maximum = 136
Network latency average = 25.8754
	minimum = 7
	maximum = 136
Slowest packet = 28260
Flit latency average = 26.1506
	minimum = 7
	maximum = 136
Slowest flit = 28260
Fragmentation average = 0
	minimum = 0
	maximum = 0
Injected packet rate average = 0.0500312
	minimum = 0.044 (at node 15)
	maximum = 0.0605 (at node 8)
Accepted packet rate average = 0.0504375
	minimum = 0.0425 (at node 6)
	maximum = 0.06 (at node 5)
Injected flit rate average = 0.0500312
	minimum = 0.044 (at node 15)
	maximum = 0.0605 (at node 8)
Accepted flit rate average= 0.0504375
	minimum = 0.0425 (at node 6)
	maximum = 0.06 (at node 5)
Injected packet length average = 1
Accepted packet length average = 1
Total in-flight flits = 20 (20 measured)
latency change    = 0.015496
throughput change = 0.00123916
Draining all recorded packets ...
Draining remaining packets ...
Time taken is 3601 cycles
Class 0:
Packet latency average = 25.1497
	minimum = 7
	maximum = 97
Network latency average = 25.1444
	minimum = 7
	maximum = 97
Slowest packet = 28988
Flit latency average = 25.1444
	minimum = 7
	maximum = 97
Slowest flit = 28988
Fragmentation average = 0
	minimum = 0
	maximum = 0
Injected packet rate average = 0.049125
	minimum = 0.028 (at node 11)
	maximum = 0.074 (at node 0)
Accepted packet rate average = 0.04675
	minimum = 0.03 (at node 13)
	maximum = 0.064 (at node 1)
Injected flit rate average = 0.049125
	minimum = 0.028 (at node 11)
	maximum = 0.074 (at node 0)
Accepted flit rate average= 0.04675
	minimum = 0.03 (at node 13)
	maximum = 0.064 (at node 1)
Injected packet length average = 1
Accepted packet length average = 1
Total in-flight flits = 19 (0 measured)
latency change    = 1
throughput change = 1
Class 0:
Packet latency average = 25.9621
	minimum = 7
	maximum = 97
Network latency average = 25.9582
	minimum = 7
	maximum = 97
Slowest packet = 28988
Flit latency average = 25.9582
	minimum = 7
	maximum = 97
Slowest flit = 28988
Fragmentation average = 0
	minimum = 0
	maximum = 0
Injected packet rate average = 0.0491875
	minimum = 0.036 (at node 11)
	maximum = 0.061 (at node 0)
Accepted packet rate average = 0.047875
	minimum = 0.036 (at node 13)
	maximum = 0.061 (at node 15)
Injected flit rate average = 0.0491875
	minimum = 0.036 (at node 11)
	maximum = 0.061 (at node 0)
Accepted flit rate average= 0.047875
	minimum = 0.036 (at node 13)
	maximum = 0.061 (at node 15)
Injected packet length average = 1
Accepted packet length average = 1
Total in-flight flits = 21 (0 measured)
latency change    = 0.031292
throughput change = 0.0234987
Class 0:
Packet latency average = 25.5452
	minimum = 7
	maximum = 86
Network latency average = 25.5452
	minimum = 7
	maximum = 86
Slowest packet = 29661
Flit latency average = 25.5452
	minimum = 7
	maximum = 86
Slowest flit = 29661
Fragmentation average = 0
	minimum = 0
	maximum = 0
Injected packet rate average = 0.04875
	minimum = 0.032 (at node 3)
	maximum = 0.07 (at node 14)
Accepted packet rate average = 0.048375
	minimum = 0.034 (at node 5)
	maximum = 0.062 (at node 11)
Injected flit rate average = 0.04875
	minimum = 0.032 (at node 3)
	maximum = 0.07 (at node 14)
Accepted flit rate average= 0.048375
	minimum = 0.034 (at node 5)
	maximum = 0.062 (at node 11)
Injected packet length average = 1
Accepted packet length average = 1
Total in-flight flits = 24 (0 measured)
latency change    = 0.0163209
throughput change = 0.0103359
Warmed up ...Time used is 1500 cycles
Class 0:
Packet latency average = 24.6821
	minimum = 7
	maximum = 74
Network latency average = 24.6821
	minimum = 7
	maximum = 74
Slowest packet = 30314
Flit latency average = 25.2577
	minimum = 7
	maximum = 89
Slowest flit = 30105
Fragmentation average = 0
	minimum = 0
	maximum = 0
Injected packet rate average = 0.04875
	minimum = 0.03 (at node 10)
	maximum = 0.064 (at node 3)
Accepted packet rate average = 0.049
	minimum = 0.03 (at node 12)
	maximum = 0.07 (at node 15)
Injected flit rate average = 0.04875
	minimum = 0.03 (at node 10)
	maximum = 0.064 (at node 3)
Accepted flit rate average= 0.049
	minimum = 0.03 (at node 12)
	maximum = 0.07 (at node 15)
Injected packet length average = 1
Accepted packet length average = 1
Total in-flight flits = 22 (22 measured)
latency change    = 0.0349709
throughput change = 0.0127551
Class 0:
Packet latency average = 25.7383
	minimum = 7
	maximum = 103
Network latency average = 25.7383
	minimum = 7
	maximum = 103
Slowest packet = 30763
Flit latency average = 25.9899
	minimum = 7
	maximum = 103
Slowest flit = 30763
Fragmentation average = 0
	minimum = 0
	maximum = 0
Injected packet rate average = 0.050375
	minimum = 0.041 (at node 9)
	maximum = 0.06 (at node 1)
Accepted packet rate average = 0.04975
	minimum = 0.036 (at node 9)
	maximum = 0.065 (at node 15)
Injected flit rate average = 0.050375
	minimum = 0.041 (at node 9)
	maximum = 0.06 (at node 1)
Accepted flit rate average= 0.04975
	minimum = 0.036 (at node 9)
	maximum = 0.065 (at node 15)
Injected packet length average = 1
Accepted packet length average = 1
Total in-flight flits = 34 (34 measured)
latency change    = 0.041039
throughput change = 0.0150754
Class 0:
Packet latency average = 25.9557
	minimum = 7
	maximum = 103
Network latency average = 25.9557
	minimum = 7
	maximum = 103
Slowest packet = 30763
Flit latency average = 26.1186
	minimum = 7
	maximum = 103
Slowest flit = 30763
Fragmentation average = 0
	minimum = 0
	maximum = 0
Injected packet rate average = 0.0496667
	minimum = 0.0373333 (at node 2)
	maximum = 0.0626667 (at node 11)
Accepted packet rate average = 0.049875
	minimum = 0.044 (at node 9)
	maximum = 0.0646667 (at node 15)
Injected flit rate average = 0.0496667
	minimum = 0.0373333 (at node 2)
	maximum = 0.0626667 (at node 11)
Accepted flit rate average= 0.049875
	minimum = 0.044 (at node 9)
	maximum = 0.0646667 (at node 15)
Injected packet length average = 1
Accepted packet length average = 1
Total in-flight flits = 19 (19 measured)
latency change    = 0.00837302
throughput change = 0.00250627
Draining all recorded packets ...
Draining remaining packets ...
Time taken is 3091 cycles
Class 0:
Packet latency average = 25.1847
	minimum = 7
	maximum = 87
Network latency average = 25.1847
	minimum = 7
	maximum = 87
Slowest packet = 31511
Flit latency average = 25.1847
	minimum = 7
	maximum = 87
Slowest flit = 31511
Fragmentation average = 0
	minimum = 0
	maximum = 0
Injected packet rate average = 0.0465
	minimum = 0.034 (at node 7)
	maximum = 0.058 (at node 3)
Accepted packet rate average = 0.044
	minimum = 0.032 (at node 5)
	maximum = 0.058 (at node 8)
Injected flit rate average = 0.0465
	minimum = 0.034 (at node 7)
	maximum = 0.058 (at node 3)
Accepted flit rate average= 0.044
	minimum = 0.032 (at node 5)
	maximum = 0.058 (at node 8)
Injected packet length average = 1
Accepted packet length average = 1
Total in-flight flits = 20 (0 measured)
latency change    = 1
throughput change = 1
Class 0:
Packet latency average = 25.1786
	minimum = 7
	maximum = 105
Network latency average = 25.1759
	minimum = 7
	maximum = 105
Slowest packet = 31741
Flit latency average = 25.1759
	minimum = 7
	maximum = 105
Slowest flit = 31741
Fragmentation average = 0
	minimum = 0
	maximum = 0
Injected packet rate average = 0.047375
	minimum = 0.036 (at node 7)
	maximum = 0.058 (at node 15)
Accepted packet rate average = 0.0461875
	minimum = 0.034 (at node 5)
	maximum = 0.057 (at node 12)
Injected flit rate average = 0.047375
	minimum = 0.036 (at node 7)
	maximum = 0.058 (at node 15)
Accepted flit rate average= 0.0461875
	minimum = 0.034 (at node 5)
	maximum = 0.057 (at node 12)
Injected packet length average = 1
Accepted packet length average = 1
Total in-flight flits = 19 (0 measured)
latency change    = 0.00023986
throughput change = 0.0473613
Class 0:
Packet latency average = 24.0971
	minimum = 7
	maximum = 82
Network latency average = 24.0971
	minimum = 7
	maximum = 82
Slowest packet = 32264
Flit latency average = 24.0971
	minimum = 7
	maximum = 82
Slowest flit = 32264
Fragmentation average = 0
	minimum = 0
	maximum = 0
Injected packet rate average = 0.046875
	minimum = 0.03 (at node 6)
	maximum = 0.064 (at node 5)
Accepted packet rate average = 0.047625
	minimum = 0.032 (at node 11)
	maximum = 0.066 (at node 1)
Injected flit rate average = 0.046875
	minimum = 0.03 (at node 6)
	maximum = 0.064 (at node 5)
Accepted flit rate average= 0.047625
	minimum = 0.032 (at node 11)
	maximum = 0.066 (at node 1)
Injected packet length average = 1
Accepted packet length average = 1
Total in-flight flits = 13 (0 measured)
latency change    = 0.0448812
throughput change = 0.0301837
Warmed up ...Time used is 1500 cycles
Class 0:
Packet latency average = 27.2757
	minimum = 7
	maximum = 137
Network latency average = 27.273
	minimum = 7
	maximum = 137
Slowest packet = 32724
Flit latency average = 27.2977
	minimum = 7
	maximum = 137
Slowest flit = 32724
Fragmentation average = 0
	minimum = 0
	maximum = 0
Injected packet rate average = 0.049625
	minimum = 0.036 (at node 6)
	maximum = 0.068 (at node 1)
Accepted packet rate average = 0.047875
	minimum = 0.028 (at node 13)
	maximum = 0.068 (at node 1)
Injected flit rate average = 0.049625
	minimum = 0.036 (at node 6)
	maximum = 0.068 (at node 1)
Accepted flit rate average= 0.047875
	minimum = 0.028 (at node 13)
	maximum = 0.068 (at node 1)
Injected packet length average = 1
Accepted packet length average = 1
Total in-flight flits = 27 (27 measured)
latency change    = 0.116535
throughput change = 0.00522193
Class 0:
Packet latency average = 26.2946
	minimum = 7
	maximum = 137
Network latency average = 26.2933
	minimum = 7
	maximum = 137
Slowest packet = 32724
Flit latency average = 26.3209
	minimum = 7
	maximum = 137
Slowest flit = 32724
Fragmentation average = 0
	minimum = 0
	maximum = 0
Injected packet rate average = 0.050625
	minimum = 0.033 (at node 6)
	maximum = 0.067 (at node 3)
Accepted packet rate average = 0.05025
	minimum = 0.035 (at node 13)
	maximum = 0.065 (at node 12)
Injected flit rate average = 0.050625
	minimum = 0.033 (at node 6)
	maximum = 0.067 (at node 3)
Accepted flit rate average= 0.05025
	minimum = 0.035 (at node 13)
	maximum = 0.065 (at node 12)
Injected packet length average = 1
Accepted packet length average = 1
Total in-flight flits = 19 (19 measured)
latency change    = 0.0373123
throughput change = 0.0472637
Class 0:
Packet latency average = 25.8335
	minimum = 7
	maximum = 137
Network latency average = 25.8293
	minimum = 7
	maximum = 137
Slowest packet = 32724
Flit latency average = 25.8526
	minimum = 7
	maximum = 137
Slowest flit = 32724
Fragmentation average = 0
	minimum = 0
	maximum = 0
Injected packet rate average = 0.051
	minimum = 0.0386667 (at node 6)
	maximum = 0.062 (at node 3)
Accepted packet rate average = 0.0505833
	minimum = 0.0393333 (at node 13)
	maximum = 0.0606667 (at node 12)
Injected flit rate average = 0.051
	minimum = 0.0386667 (at node 6)
	maximum = 0.062 (at node 3)
Accepted flit rate average= 0.0505833
	minimum = 0.0393333 (at node 13)
	maximum = 0.0606667 (at node 12)
Injected packet length average = 1
Accepted packet length average = 1
Total in-flight flits = 23 (23 measured)
latency change    = 0.0178486
throughput change = 0.00658979
Class 0:
Packet latency average = 25.6159
	minimum = 7
	maximum = 137
Network latency average = 25.6127
	minimum = 7
	maximum = 137
Slowest packet = 32724
Flit latency average = 25.6323
	minimum = 7
	maximum = 137
Slowest flit = 32724
Fragmentation average = 0
	minimum = 0
	maximum = 0
Injected packet rate average = 0.0499062
	minimum = 0.0385 (at node 6)
	maximum = 0.056 (at node 3)
Accepted packet rate average = 0.0494687
	minimum = 0.039 (at node 13)
	maximum = 0.061 (at node 12)
Injected flit rate average = 0.0499062
	minimum = 0.0385 (at node 6)
	maximum = 0.056 (at node 3)
Accepted flit rate average= 0.0494687
	minimum = 0.039 (at node 13)
	maximum = 0.061 (at node 12)
Injected packet length average = 1
Accepted packet length average = 1
Total in-flight flits = 27 (27 measured)
latency change    = 0.00849271
throughput change = 0.0225311
Draining all recorded packets ...
Draining remaining packets ...
Time taken is 3672 cycles
Class 0:
Packet latency average = 25.1054
	minimum = 7
	maximum = 76
Network latency average = 25.0946
	minimum = 7
	maximum = 76
Slowest packet = 34391
Flit latency average = 25.0946
	minimum = 7
	maximum = 76
Slowest flit = 34391
Fragmentation average = 0
	minimum = 0
	maximum = 0
Injected packet rate average = 0.049
	minimum = 0.036 (at node 7)
	maximum = 0.062 (at node 2)
Accepted packet rate average = 0.04625
	minimum = 0.032 (at node 15)
	maximum = 0.066 (at node 0)
Injected flit rate average = 0.049
	minimum = 0.036 (at node 7)
	maximum = 0.062 (at node 2)
Accepted flit rate average= 0.04625
	minimum = 0.032 (at node 15)
	maximum = 0.066 (at node 0)
Injected packet length average = 1
Accepted packet length average = 1
Total in-flight flits = 22 (0 measured)
latency change    = 1
throughput change = 1
Class 0:
Packet latency average = 27.3036
	minimum = 7
	maximum = 167
Network latency average = 27.2666
	minimum = 7
	maximum = 167
Slowest packet = 34757
Flit latency average = 27.2666
	minimum = 7
	maximum = 167
Slowest flit = 34757
Fragmentation average = 0
	minimum = 0
	maximum = 0
Injected packet rate average = 0.0505625
	minimum = 0.044 (at node 8)
	maximum = 0.058 (at node 11)
Accepted packet rate average = 0.049
	minimum = 0.041 (at node 4)
	maximum = 0.059 (at node 14)
Injected flit rate average = 0.0505625
	minimum = 0.044 (at node 8)
	maximum = 0.058 (at node 11)
Accepted flit rate average= 0.049
	minimum = 0.041 (at node 4)
	maximum = 0.059 (at node 14)
Injected packet length average = 1
Accepted packet length average = 1
Total in-flight flits = 25 (0 measured)
latency change    = 0.0805084
throughput change = 0.0561224
Class 0:
Packet latency average = 25.4813
	minimum = 7
	maximum = 119
Network latency average = 25.4369
	minimum = 7
	maximum = 100
Slowest packet = 34848
Flit latency average = 25.4369
	minimum = 7
	maximum = 100
Slowest flit = 34848
Fragmentation average = 0
	minimum = 0
	maximum = 0
Injected packet rate average = 0.05275
	minimum = 0.038 (at node 0)
	maximum = 0.064 (at node 7)
Accepted packet rate average = 0.0535
	minimum = 0.036 (at node 7)
	maximum = 0.07 (at node 4)
Injected flit rate average = 0.05275
	minimum = 0.038 (at node 0)
	maximum = 0.064 (at node 7)
Accepted flit rate average= 0.0535
	minimum = 0.036 (at node 7)
	maximum = 0.07 (at node 4)
Injected packet length average = 1
Accepted packet length average = 1
Total in-flight flits = 19 (0 measured)
latency change    = 0.0715137
throughput change = 0.0841121
Warmed up ...Time used is 1500 cycles
Class 0:
Packet latency average = 24.2822
	minimum = 7
	maximum = 102
Network latency average = 24.2822
	minimum = 7
	maximum = 102
Slowest packet = 35476
Flit latency average = 24.6146
	minimum = 7
	maximum = 102
Slowest flit = 35476
Fragmentation average = 0
	minimum = 0
	maximum = 0
Injected packet rate average = 0.047875
	minimum = 0.03 (at node 13)
	maximum = 0.076 (at node 14)
Accepted packet rate average = 0.048
	minimum = 0.032 (at node 7)
	maximum = 0.068 (at node 11)
Injected flit rate average = 0.047875
	minimum = 0.03 (at node 13)
	maximum = 0.076 (at node 14)
Accepted flit rate average= 0.048
	minimum = 0.032 (at node 7)
	maximum = 0.068 (at node 11)
Injected packet length average = 1
Accepted packet length average = 1
Total in-flight flits = 18 (18 measured)
latency change    = 0.0493826
throughput change = 0.114583
Class 0:
Packet latency average = 24.8779
	minimum = 7
	maximum = 102
Network latency average = 24.8779
	minimum = 7
	maximum = 102
Slowest packet = 35476
Flit latency average = 25.0238
	minimum = 7
	maximum = 102
Slowest flit = 35476
Fragmentation average = 0
	minimum = 0
	maximum = 0
Injected packet rate average = 0.0498125
	minimum = 0.038 (at node 13)
	maximum = 0.061 (at node 0)
Accepted packet rate average = 0.0498125
	minimum = 0.039 (at node 12)
	maximum = 0.063 (at node 15)
Injected flit rate average = 0.0498125
	minimum = 0.038 (at node 13)
	maximum = 0.061 (at node 0)
Accepted flit rate average= 0.0498125
	minimum = 0.039 (at node 12)
	maximum = 0.063 (at node 15)
Injected packet length average = 1
Accepted packet length average = 1
Total in-flight flits = 19 (19 measured)
latency change    = 0.023945
throughput change = 0.0363864
Class 0:
Packet latency average = 25.1909
	minimum = 7
	maximum = 102
Network latency average = 25.1909
	minimum = 7
	maximum = 102
Slowest packet = 35476
Flit latency average = 25.2839
	minimum = 7
	maximum = 102
Slowest flit = 35476
Fragmentation average = 0
	minimum = 0
	maximum = 0
Injected packet rate average = 0.049875
	minimum = 0.0386667 (at node 15)
	maximum = 0.06 (at node 0)
Accepted packet rate average = 0.0494583
	minimum = 0.0366667 (at node 12)
	maximum = 0.06 (at node 5)
Injected flit rate average = 0.049875
	minimum = 0.0386667 (at node 15)
	maximum = 0.06 (at node 0)
Accepted flit rate average= 0.0494583
	minimum = 0.0366667 (at node 12)
	maximum = 0.06 (at node 5)
Injected packet length average = 1
Accepted packet length average = 1
Total in-flight flits = 30 (30 measured)
latency change    = 0.0124264
throughput change = 0.00716091
Class 0:
Packet latency average = 25.9987
	minimum = 7
	maximum = 113
Network latency average = 25.9753
	minimum = 7
	maximum = 113
Slowest packet = 36786
Flit latency average = 26.035
	minimum = 7
	maximum = 113
Slowest flit = 36786
Fragmentation average = 0
	minimum = 0
	maximum = 0
Injected packet rate average = 0.0500625
	minimum = 0.0425 (at node 15)
	maximum = 0.057 (at node 0)
Accepted packet rate average = 0.0500312
	minimum = 0.0415 (at node 13)
	maximum = 0.059 (at node 5)
Injected flit rate average = 0.0500625
	minimum = 0.0425 (at node 15)
	maximum = 0.057 (at node 0)
Accepted flit rate average= 0.0500312
	minimum = 0.0415 (at node 13)
	maximum = 0.059 (at node 5)
Injected packet length average = 1
Accepted packet length average = 1
Total in-flight flits = 20 (20 measured)
latency change    = 0.0310712
throughput change = 0.0114512
Draining all recorded packets ...
Draining remaining packets ...
Time taken is 3606 cycles
Class 0:
Packet latency average = 24.6632
	minimum = 7
	maximum = 77
Network latency average = 24.6632
	minimum = 7
	maximum = 77
Slowest packet = 37250
Flit latency average = 24.6632
	minimum = 7
	maximum = 77
Slowest flit = 37250
Fragmentation average = 0
	minimum = 0
	maximum = 0
Injected packet rate average = 0.04975
	minimum = 0.026 (at node 1)
	maximum = 0.062 (at node 12)
Accepted packet rate average = 0.047875
	minimum = 0.028 (at node 0)
	maximum = 0.068 (at node 15)
Injected flit rate average = 0.04975
	minimum = 0.026 (at node 1)
	maximum = 0.062 (at node 12)
Accepted flit rate average= 0.047875
	minimum = 0.028 (at node 0)
	maximum = 0.068 (at node 15)
[...]
	minimum = 7
	maximum = 95
Slowest packet = 136911
Flit latency average = 25.6378
	minimum = 7
	maximum = 95
Slowest flit = 136911
Fragmentation average = 0
	minimum = 0
	maximum = 0
Injected packet rate average = 0.050375
	minimum = 0.03 (at node 4)
	maximum = 0.082 (at node 7)
Accepted packet rate average = 0.047625
	minimum = 0.028 (at node 2)
	maximum = 0.078 (at node 7)
Injected flit rate average = 0.050375
	minimum = 0.03 (at node 4)
	maximum = 0.082 (at node 7)
Accepted flit rate average= 0.047625
	minimum = 0.028 (at node 2)
	maximum = 0.078 (at node 7)
Injected packet length average = 1
Accepted packet length average = 1
Total in-flight flits = 22 (0 measured)
latency change    = 1
throughput change = 1
Class 0:
Packet latency average = 26.0758
	minimum = 7
	maximum = 95
Network latency average = 26.0745
	minimum = 7
	maximum = 95
Slowest packet = 136911
Flit latency average = 26.0745
	minimum = 7
	maximum = 95
Slowest flit = 136911
Fragmentation average = 0
	minimum = 0
	maximum = 0
Injected packet rate average = 0.0489375
	minimum = 0.035 (at node 12)
	maximum = 0.065 (at node 7)
Accepted packet rate average = 0.0478125
	minimum = 0.035 (at node 3)
	maximum = 0.069 (at node 7)
Injected flit rate average = 0.0489375
	minimum = 0.035 (at node 12)
	maximum = 0.065 (at node 7)
Accepted flit rate average= 0.0478125
	minimum = 0.035 (at node 3)
	maximum = 0.069 (at node 7)
Injected packet length average = 1
Accepted packet length average = 1
Total in-flight flits = 18 (0 measured)
latency change    = 0.0166974
throughput change = 0.00392157
Class 0:
Packet latency average = 27.7506
	minimum = 7
	maximum = 124
Network latency average = 27.7506
	minimum = 7
	maximum = 124
Slowest packet = 137440
Flit latency average = 27.7506
	minimum = 7
	maximum = 124
Slowest flit = 137440
Fragmentation average = 0
	minimum = 0
	maximum = 0
Injected packet rate average = 0.05125
	minimum = 0.034 (at node 15)
	maximum = 0.066 (at node 3)
Accepted packet rate average = 0.050625
	minimum = 0.03 (at node 14)
	maximum = 0.076 (at node 7)
Injected flit rate average = 0.05125
	minimum = 0.034 (at node 15)
	maximum = 0.066 (at node 3)
Accepted flit rate average= 0.050625
	minimum = 0.03 (at node 14)
	maximum = 0.076 (at node 7)
Injected packet length average = 1
Accepted packet length average = 1
Total in-flight flits = 23 (0 measured)
latency change    = 0.0603518
throughput change = 0.0555556
Warmed up ...Time used is 1500 cycles
Class 0:
Packet latency average = 25.1775
	minimum = 7
	maximum = 80
Network latency average = 25.1775
	minimum = 7
	maximum = 80
Slowest packet = 138067
Flit latency average = 25.436
	minimum = 7
	maximum = 80
Slowest flit = 138067
Fragmentation average = 0
	minimum = 0
	maximum = 0
Injected packet rate average = 0.05075
	minimum = 0.034 (at node 3)
	maximum = 0.068 (at node 5)
Accepted packet rate average = 0.05075
	minimum = 0.03 (at node 10)
	maximum = 0.07 (at node 4)
Injected flit rate average = 0.05075
	minimum = 0.034 (at node 3)
	maximum = 0.068 (at node 5)
Accepted flit rate average= 0.05075
	minimum = 0.03 (at node 10)
	maximum = 0.07 (at node 4)
Injected packet length average = 1
Accepted packet length average = 1
Total in-flight flits = 23 (23 measured)
latency change    = 0.102197
throughput change = 0.00246305
Class 0:
Packet latency average = 26.0145
	minimum = 7
	maximum = 101
Network latency average = 25.9501
	minimum = 7
	maximum = 101
Slowest packet = 138260
Flit latency average = 26.0612
	minimum = 7
	maximum = 101
Slowest flit = 138260
Fragmentation average = 0
	minimum = 0
	maximum = 0
Injected packet rate average = 0.049125
	minimum = 0.036 (at node 12)
	maximum = 0.062 (at node 9)
Accepted packet rate average = 0.049
	minimum = 0.035 (at node 5)
	maximum = 0.058 (at node 0)
Injected flit rate average = 0.049125
	minimum = 0.036 (at node 12)
	maximum = 0.062 (at node 9)
Accepted flit rate average= 0.049
	minimum = 0.035 (at node 5)
	maximum = 0.058 (at node 0)
Injected packet length average = 1
Accepted packet length average = 1
Total in-flight flits = 25 (25 measured)
latency change    = 0.0321709
throughput change = 0.0357143
Class 0:
Packet latency average = 27.5981
	minimum = 7
	maximum = 204
Network latency average = 27.4724
	minimum = 7
	maximum = 204
Slowest packet = 138764
Flit latency average = 27.5158
	minimum = 7
	maximum = 204
Slowest flit = 138764
Fragmentation average = 0
	minimum = 0
	maximum = 0
Injected packet rate average = 0.0500833
	minimum = 0.0413333 (at node 12)
	maximum = 0.062 (at node 8)
Accepted packet rate average = 0.05
	minimum = 0.0386667 (at node 5)
	maximum = 0.0613333 (at node 9)
Injected flit rate average = 0.0500833
	minimum = 0.0413333 (at node 12)
	maximum = 0.062 (at node 8)
Accepted flit rate average= 0.05
	minimum = 0.0386667 (at node 5)
	maximum = 0.0613333 (at node 9)
Injected packet length average = 1
Accepted packet length average = 1
Total in-flight flits = 25 (25 measured)
latency change    = 0.0573835
throughput change = 0.02
Class 0:
Packet latency average = 27.302
	minimum = 7
	maximum = 204
Network latency average = 27.2109
	minimum = 7
	maximum = 204
Slowest packet = 138764
Flit latency average = 27.2462
	minimum = 7
	maximum = 204
Slowest flit = 138764
Fragmentation average = 0
	minimum = 0
	maximum = 0
Injected packet rate average = 0.0513438
	minimum = 0.0435 (at node 12)
	maximum = 0.061 (at node 8)
Accepted packet rate average = 0.0515313
	minimum = 0.0405 (at node 10)
	maximum = 0.0595 (at node 9)
Injected flit rate average = 0.0513438
	minimum = 0.0435 (at node 12)
	maximum = 0.061 (at node 8)
Accepted flit rate average= 0.0515313
	minimum = 0.0405 (at node 10)
	maximum = 0.0595 (at node 9)
Injected packet length average = 1
Accepted packet length average = 1
Total in-flight flits = 17 (17 measured)
latency change    = 0.0108477
throughput change = 0.029715
Class 0:
Packet latency average = 27.0847
	minimum = 7
	maximum = 204
Network latency average = 27.0118
	minimum = 7
	maximum = 204
Slowest packet = 138764
Flit latency average = 27.0424
	minimum = 7
	maximum = 204
Slowest flit = 138764
Fragmentation average = 0
	minimum = 0
	maximum = 0
Injected packet rate average = 0.051225
	minimum = 0.0452 (at node 13)
	maximum = 0.0596 (at node 8)
Accepted packet rate average = 0.05135
	minimum = 0.0424 (at node 10)
	maximum = 0.0572 (at node 3)
Injected flit rate average = 0.051225
	minimum = 0.0452 (at node 13)
	maximum = 0.0596 (at node 8)
Accepted flit rate average= 0.05135
	minimum = 0.0424 (at node 10)
	maximum = 0.0572 (at node 3)
Injected packet length average = 1
Accepted packet length average = 1
Total in-flight flits = 18 (18 measured)
latency change    = 0.00802227
throughput change = 0.0035297
Class 0:
Packet latency average = 26.5676
	minimum = 7
	maximum = 204
Network latency average = 26.5064
	minimum = 7
	maximum = 204
Slowest packet = 138764
Flit latency average = 26.5369
	minimum = 7
	maximum = 204
Slowest flit = 138764
Fragmentation average = 0
	minimum = 0
	maximum = 0
Injected packet rate average = 0.05075
	minimum = 0.045 (at node 13)
	maximum = 0.058 (at node 9)
Accepted packet rate average = 0.050875
	minimum = 0.0436667 (at node 5)
	maximum = 0.056 (at node 11)
Injected flit rate average = 0.05075
	minimum = 0.045 (at node 13)
	maximum = 0.058 (at node 9)
Accepted flit rate average= 0.050875
	minimum = 0.0436667 (at node 5)
	maximum = 0.056 (at node 11)
Injected packet length average = 1
Accepted packet length average = 1
Total in-flight flits = 17 (17 measured)
latency change    = 0.0194635
throughput change = 0.00933661
Draining all recorded packets ...
Draining remaining packets ...
Time taken is 4601 cycles
Class 0:
Packet latency average = 26.6289
	minimum = 7
	maximum = 99
Network latency average = 26.6289
	minimum = 7
	maximum = 99
Slowest packet = 140459
Flit latency average = 26.6289
	minimum = 7
	maximum = 99
Slowest flit = 140459
Fragmentation average = 0
	minimum = 0
	maximum = 0
Injected packet rate average = 0.0505
	minimum = 0.03 (at node 9)
	maximum = 0.074 (at node 15)
Accepted packet rate average = 0.0475
	minimum = 0.034 (at node 1)
	maximum = 0.064 (at node 11)
Injected flit rate average = 0.0505
	minimum = 0.03 (at node 9)
	maximum = 0.074 (at node 15)
Accepted flit rate average= 0.0475
	minimum = 0.034 (at node 1)
	maximum = 0.064 (at node 11)
Injected packet length average = 1
Accepted packet length average = 1
Total in-flight flits = 24 (0 measured)
latency change    = 1
throughput change = 1
Class 0:
Packet latency average = 25.7284
	minimum = 7
	maximum = 103
Network latency average = 25.7284
	minimum = 7
	maximum = 103
Slowest packet = 140828
Flit latency average = 25.7284
	minimum = 7
	maximum = 103
Slowest flit = 140828
Fragmentation average = 0
	minimum = 0
	maximum = 0
Injected packet rate average = 0.0498125
	minimum = 0.034 (at node 9)
	maximum = 0.061 (at node 5)
Accepted packet rate average = 0.0485625
	minimum = 0.037 (at node 15)
	maximum = 0.057 (at node 5)
Injected flit rate average = 0.0498125
	minimum = 0.034 (at node 9)
	maximum = 0.061 (at node 5)
Accepted flit rate average= 0.0485625
	minimum = 0.037 (at node 15)
	maximum = 0.057 (at node 5)
Injected packet length average = 1
Accepted packet length average = 1
Total in-flight flits = 20 (0 measured)
latency change    = 0.0350004
throughput change = 0.021879
Class 0:
Packet latency average = 25.9293
	minimum = 7
	maximum = 125
Network latency average = 25.9293
	minimum = 7
	maximum = 125
Slowest packet = 141194
Flit latency average = 25.9293
	minimum = 7
	maximum = 125
Slowest flit = 141194
Fragmentation average = 0
	minimum = 0
	maximum = 0
Injected packet rate average = 0.0495
	minimum = 0.036 (at node 3)
	maximum = 0.064 (at node 12)
Accepted packet rate average = 0.0495
	minimum = 0.03 (at node 0)
	maximum = 0.074 (at node 2)
Injected flit rate average = 0.0495
	minimum = 0.036 (at node 3)
	maximum = 0.064 (at node 12)
Accepted flit rate average= 0.0495
	minimum = 0.03 (at node 0)
	maximum = 0.074 (at node 2)
Injected packet length average = 1
Accepted packet length average = 1
Total in-flight flits = 20 (0 measured)
latency change    = 0.00774607
throughput change = 0.0189394
Warmed up ...Time used is 1500 cycles
Class 0:
Packet latency average = 25.7474
	minimum = 7
	maximum = 99
Network latency average = 25.7474
	minimum = 7
	maximum = 99
Slowest packet = 141677
Flit latency average = 25.97
	minimum = 7
	maximum = 99
Slowest flit = 141677
Fragmentation average = 0
	minimum = 0
	maximum = 0
Injected packet rate average = 0.05
	minimum = 0.03 (at node 13)
	maximum = 0.066 (at node 14)
Accepted packet rate average = 0.05
	minimum = 0.032 (at node 12)
	maximum = 0.066 (at node 13)
Injected flit rate average = 0.05
	minimum = 0.03 (at node 13)
	maximum = 0.066 (at node 14)
Accepted flit rate average= 0.05
	minimum = 0.032 (at node 12)
	maximum = 0.066 (at node 13)
Injected packet length average = 1
Accepted packet length average = 1
Total in-flight flits = 20 (20 measured)
latency change    = 0.00706575
throughput change = 0.01
Class 0:
Packet latency average = 25.5587
	minimum = 7
	maximum = 99
Network latency average = 25.5587
	minimum = 7
	maximum = 99
Slowest packet = 141677
Flit latency average = 25.6755
	minimum = 7
	maximum = 99
Slowest flit = 141677
Fragmentation average = 0
	minimum = 0
	maximum = 0
Injected packet rate average = 0.050375
	minimum = 0.042 (at node 7)
	maximum = 0.06 (at node 9)
Accepted packet rate average = 0.0496875
	minimum = 0.042 (at node 15)
	maximum = 0.061 (at node 13)
Injected flit rate average = 0.050375
	minimum = 0.042 (at node 7)
	maximum = 0.06 (at node 9)
Accepted flit rate average= 0.0496875
	minimum = 0.042 (at node 15)
	maximum = 0.061 (at node 13)
Injected packet length average = 1
Accepted packet length average = 1
Total in-flight flits = 31 (31 measured)
latency change    = 0.00738139
throughput change = 0.00628931
Class 0:
Packet latency average = 25.5554
	minimum = 7
	maximum = 111
Network latency average = 25.5554
	minimum = 7
	maximum = 111
Slowest packet = 142282
Flit latency average = 25.6338
	minimum = 7
	maximum = 111
Slowest flit = 142282
Fragmentation average = 0
	minimum = 0
	maximum = 0
Injected packet rate average = 0.049125
	minimum = 0.0413333 (at node 7)
	maximum = 0.0606667 (at node 15)
Accepted packet rate average = 0.049375
	minimum = 0.036 (at node 15)
	maximum = 0.0573333 (at node 5)
Injected flit rate average = 0.049125
	minimum = 0.0413333 (at node 7)
	maximum = 0.0606667 (at node 15)
Accepted flit rate average= 0.049375
	minimum = 0.036 (at node 15)
	maximum = 0.0573333 (at node 5)
Injected packet length average = 1
Accepted packet length average = 1
Total in-flight flits = 14 (14 measured)
latency change    = 0.000130887
throughput change = 0.00632911
Draining all recorded packets ...
Draining remaining packets ...
Time taken is 3133 cycles
Class 0:
Packet latency average = 26.1667
	minimum = 7
	maximum = 76
Network latency average = 26.1667
	minimum = 7
	maximum = 76
Slowest packet = 143051
Flit latency average = 26.1667
	minimum = 7
	maximum = 76
Slowest flit = 143051
Fragmentation average = 0
	minimum = 0
	maximum = 0
Injected packet rate average = 0.051
	minimum = 0.04 (at node 3)
	maximum = 0.066 (at node 4)
Accepted packet rate average = 0.048
	minimum = 0.03 (at node 9)
	maximum = 0.062 (at node 1)
Injected flit rate average = 0.051
	minimum = 0.04 (at node 3)
	maximum = 0.066 (at node 4)
Accepted flit rate average= 0.048
	minimum = 0.03 (at node 9)
	maximum = 0.062 (at node 1)
Injected packet length average = 1
Accepted packet length average = 1
Total in-flight flits = 24 (0 measured)
latency change    = 1
throughput change = 1
Class 0:
Packet latency average = 25.6228
	minimum = 7
	maximum = 86
Network latency average = 25.6228
	minimum = 7
	maximum = 86
Slowest packet = 143111
Flit latency average = 25.6228
	minimum = 7
	maximum = 86
Slowest flit = 143111
Fragmentation average = 0
	minimum = 0
	maximum = 0
Injected packet rate average = 0.0505625
	minimum = 0.042 (at node 0)
	maximum = 0.06 (at node 10)
Accepted packet rate average = 0.049375
	minimum = 0.034 (at node 11)
	maximum = 0.061 (at node 8)
Injected flit rate average = 0.0505625
	minimum = 0.042 (at node 0)
	maximum = 0.06 (at node 10)
Accepted flit rate average= 0.049375
	minimum = 0.034 (at node 11)
	maximum = 0.061 (at node 8)
Injected packet length average = 1
Accepted packet length average = 1
Total in-flight flits = 19 (0 measured)
latency change    = 0.0212265
throughput change = 0.0278481
Class 0:
Packet latency average = 25.0829
	minimum = 7
	maximum = 113
Network latency average = 25.0829
	minimum = 7
	maximum = 113
Slowest packet = 143622
Flit latency average = 25.0829
	minimum = 7
	maximum = 113
Slowest flit = 143622
Fragmentation average = 0
	minimum = 0
	maximum = 0
Injected packet rate average = 0.0475
	minimum = 0.034 (at node 10)
	maximum = 0.07 (at node 12)
Accepted packet rate average = 0.04675
	minimum = 0.034 (at node 0)
	maximum = 0.068 (at node 1)
Injected flit rate average = 0.0475
	minimum = 0.034 (at node 10)
	maximum = 0.07 (at node 12)
Accepted flit rate average= 0.04675
	minimum = 0.034 (at node 0)
	maximum = 0.068 (at node 1)
Injected packet length average = 1
Accepted packet length average = 1
Total in-flight flits = 25 (0 measured)
latency change    = 0.0215245
throughput change = 0.0561497
Warmed up ...Time used is 1500 cycles
Class 0:
Packet latency average = 26.472
	minimum = 7
	maximum = 116
Network latency average = 26.472
	minimum = 7
	maximum = 116
Slowest packet = 144206
Flit latency average = 26.89
	minimum = 7
	maximum = 116
Slowest flit = 144206
Fragmentation average = 0
	minimum = 0
	maximum = 0
Injected packet rate average = 0.048625
	minimum = 0.03 (at node 2)
	maximum = 0.076 (at node 13)
Accepted packet rate average = 0.05
	minimum = 0.034 (at node 10)
	maximum = 0.072 (at node 9)
Injected flit rate average = 0.048625
	minimum = 0.03 (at node 2)
	maximum = 0.076 (at node 13)
Accepted flit rate average= 0.05
	minimum = 0.034 (at node 10)
	maximum = 0.072 (at node 9)
Injected packet length average = 1
Accepted packet length average = 1
Total in-flight flits = 14 (14 measured)
latency change    = 0.0524748
throughput change = 0.065
Class 0:
Packet latency average = 25.6439
	minimum = 7
	maximum = 117
Network latency average = 25.6439
	minimum = 7
	maximum = 117
Slowest packet = 144321
Flit latency average = 25.8788
	minimum = 7
	maximum = 117
Slowest flit = 144321
Fragmentation average = 0
	minimum = 0
	maximum = 0
Injected packet rate average = 0.0496875
	minimum = 0.035 (at node 3)
	maximum = 0.075 (at node 13)
Accepted packet rate average = 0.05
	minimum = 0.038 (at node 7)
	maximum = 0.073 (at node 9)
Injected flit rate average = 0.0496875
	minimum = 0.035 (at node 3)
	maximum = 0.075 (at node 13)
Accepted flit rate average= 0.05
	minimum = 0.038 (at node 7)
	maximum = 0.073 (at node 9)
Injected packet length average = 1
Accepted packet length average = 1
Total in-flight flits = 20 (20 measured)
latency change    = 0.0322934
throughput change = 0
Class 0:
Packet latency average = 25.3527
	minimum = 7
	maximum = 117
Network latency average = 25.3527
	minimum = 7
	maximum = 117
Slowest packet = 144321
Flit latency average = 25.5114
	minimum = 7
	maximum = 117
Slowest flit = 144321
Fragmentation average = 0
	minimum = 0
	maximum = 0
Injected packet rate average = 0.0511667
	minimum = 0.0353333 (at node 3)
	maximum = 0.0646667 (at node 13)
Accepted packet rate average = 0.05125
	minimum = 0.0393333 (at node 13)
	maximum = 0.064 (at node 9)
Injected flit rate average = 0.0511667
	minimum = 0.0353333 (at node 3)
	maximum = 0.0646667 (at node 13)
Accepted flit rate average= 0.05125
	minimum = 0.0393333 (at node 13)
	maximum = 0.064 (at node 9)
Injected packet length average = 1
Accepted packet length average = 1
Total in-flight flits = 23 (23 measured)
latency change    = 0.0114849
throughput change = 0.0243902
Class 0:
Packet latency average = 25.1793
	minimum = 7
	maximum = 117
Network latency average = 25.1793
	minimum = 7
	maximum = 117
Slowest packet = 144321
Flit latency average = 25.3041
	minimum = 7
	maximum = 117
Slowest flit = 144321
Fragmentation average = 0
	minimum = 0
	maximum = 0
Injected packet rate average = 0.0497812
	minimum = 0.04 (at node 3)
	maximum = 0.0575 (at node 13)
Accepted packet rate average = 0.0499375
	minimum = 0.038 (at node 0)
	maximum = 0.0615 (at node 12)
Injected flit rate average = 0.0497812
	minimum = 0.04 (at node 3)
	maximum = 0.0575 (at node 13)
Accepted flit rate average= 0.0499375
	minimum = 0.038 (at node 0)
	maximum = 0.0615 (at node 12)
Injected packet length average = 1
Accepted packet length average = 1
Total in-flight flits = 20 (20 measured)
latency change    = 0.00688748
throughput change = 0.0262829
Draining all recorded packets ...
Draining remaining packets ...
Time taken is 3584 cycles
====== Overall Traffic Statistics ======
====== Traffic class 0 ======
Packet latency average = 26.0892 (50 samples)
	minimum = 7 (50 samples)
	maximum = 133.04 (50 samples)
Network latency average = 26.082 (50 samples)
	minimum = 7 (50 samples)
	maximum = 133.04 (50 samples)
Flit latency average = 26.2284 (50 samples)
	minimum = 7 (50 samples)
	maximum = 135.98 (50 samples)
Fragmentation average = 0 (50 samples)
	minimum = 0 (50 samples)
	maximum = 0 (50 samples)
Injected packet rate average = 0.0499138 (50 samples)
	minimum = 0.0412893 (50 samples)
	maximum = 0.0588987 (50 samples)
Accepted packet rate average = 0.0499349 (50 samples)
	minimum = 0.0412687 (50 samples)
	maximum = 0.0589893 (50 samples)
Injected flit rate average = 0.0499138 (50 samples)
	minimum = 0.0412893 (50 samples)
	maximum = 0.0588987 (50 samples)
Accepted flit rate average = 0.0499349 (50 samples)
	minimum = 0.0412687 (50 samples)
	maximum = 0.0589893 (50 samples)
Injected packet size average = 1 (50 samples)
Accepted packet size average = 1 (50 samples)
Hops average = 4.17712 (50 samples)
Total run time 2.28442
