BEGIN Configuration File: /tmp/tmpk1nx1icz.cfg
topology = mesh;
k = 4;
n = 2;
routing_function = planar_adapt;
num_vcs = 4;
vc_buf_size = 4;
wait_for_tail_credit = 1;
vc_allocator = islip;
sw_allocator = islip;
alloc_iters = 1;
credit_delay = 2;
routing_delay = 1;
vc_alloc_delay = 1;
sw_alloc_delay = 1;
input_speedup = 2;
output_speedup = 1;
internal_speedup = 1.0;
traffic = transpose;
packet_size = 1;
sim_type = latency;
injection_rate = 0.01;
warmup_periods = 3;
sample_period = 500;
sim_count = 50;
seed = 2;
link_failures = 2;
fail_seed = 303;

END Configuration File: /tmp/tmpk1nx1icz.cfg
failure at node 9, channel 2 (1/2)
failure at node 15, channel 3 (2/2)
Class 0:
Packet latency average = 23.7581
	minimum = 7
	maximum = 57
Network latency average = 23.7581
	minimum = 7
	maximum = 57
Slowest packet = 6
Flit latency average = 23.7581
	minimum = 7
	maximum = 57
Slowest flit = 6
Fragmentation average = 0
	minimum = 0
	maximum = 0
Injected packet rate average = 0.008125
	minimum = 0 (at node 9)
	maximum = 0.014 (at node 5)
Accepted packet rate average = 0.00775
	minimum = 0 (at node 6)
	maximum = 0.014 (at node 5)
Injected flit rate average = 0.008125
	minimum = 0 (at node 9)
	maximum = 0.014 (at node 5)
Accepted flit rate average= 0.00775
	minimum = 0 (at node 6)
	maximum = 0.014 (at node 5)
Injected packet length average = 1
Accepted packet length average = 1
Total in-flight flits = 3 (0 measured)
latency change    = 1
throughput change = 1
Class 0:
Packet latency average = 23.7045
	minimum = 7
	maximum = 58
Network latency average = 23.7045
	minimum = 7
	maximum = 58
Slowest packet = 105
Flit latency average = 23.7045
	minimum = 7
	maximum = 58
Slowest flit = 105
Fragmentation average = 0
	minimum = 0
	maximum = 0
Injected packet rate average = 0.008625
	minimum = 0.003 (at node 2)
	maximum = 0.015 (at node 13)
Accepted packet rate average = 0.00825
	minimum = 0.003 (at node 6)
	maximum = 0.013 (at node 7)
Injected flit rate average = 0.008625
	minimum = 0.003 (at node 2)
	maximum = 0.015 (at node 13)
Accepted flit rate average= 0.00825
	minimum = 0.003 (at node 6)
	maximum = 0.013 (at node 7)
Injected packet length average = 1
Accepted packet length average = 1
Total in-flight flits = 6 (0 measured)
latency change    = 0.00225776
throughput change = 0.0606061
Class 0:
Packet latency average = 25.2738
	minimum = 7
	maximum = 66
Network latency average = 25.2738
	minimum = 7
	maximum = 66
Slowest packet = 135
Flit latency average = 25.2738
	minimum = 7
	maximum = 66
Slowest flit = 135
Fragmentation average = 0
	minimum = 0
	maximum = 0
Injected packet rate average = 0.01
	minimum = 0.002 (at node 3)
	maximum = 0.022 (at node 13)
Accepted packet rate average = 0.0105
	minimum = 0.002 (at node 4)
	maximum = 0.024 (at node 7)
Injected flit rate average = 0.01
	minimum = 0.002 (at node 3)
	maximum = 0.022 (at node 13)
Accepted flit rate average= 0.0105
	minimum = 0.002 (at node 4)
	maximum = 0.024 (at node 7)
Injected packet length average = 1
Accepted packet length average = 1
Total in-flight flits = 2 (0 measured)
latency change    = 0.0620905
throughput change = 0.214286
Warmed up ...Time used is 1500 cycles
Class 0:
Packet latency average = 23.3908
	minimum = 7
	maximum = 61
Network latency average = 23.3908
	minimum = 7
	maximum = 61
Slowest packet = 280
Flit latency average = 23.5955
	minimum = 7
	maximum = 61
Slowest flit = 280
Fragmentation average = 0
	minimum = 0
	maximum = 0
Injected packet rate average = 0.01125
	minimum = 0.004 (at node 15)
	maximum = 0.022 (at node 10)
Accepted packet rate average = 0.011125
	minimum = 0.004 (at node 8)
	maximum = 0.022 (at node 10)
Injected flit rate average = 0.01125
	minimum = 0.004 (at node 15)
	maximum = 0.022 (at node 10)
Accepted flit rate average= 0.011125
	minimum = 0.004 (at node 8)
	maximum = 0.022 (at node 10)
Injected packet length average = 1
Accepted packet length average = 1
Total in-flight flits = 3 (3 measured)
latency change    = 0.0805019
throughput change = 0.0561798
Class 0:
Packet latency average = 24.4759
	minimum = 7
	maximum = 68
Network latency average = 24.4759
	minimum = 7
	maximum = 68
Slowest packet = 376
Flit latency average = 24.5714
	minimum = 7
	maximum = 68
Slowest flit = 376
Fragmentation average = 0
	minimum = 0
	maximum = 0
Injected packet rate average = 0.0105
	minimum = 0.006 (at node 2)
	maximum = 0.015 (at node 3)
Accepted packet rate average = 0.0105
	minimum = 0.006 (at node 8)
	maximum = 0.015 (at node 10)
Injected flit rate average = 0.0105
	minimum = 0.006 (at node 2)
	maximum = 0.015 (at node 3)
Accepted flit rate average= 0.0105
	minimum = 0.006 (at node 8)
	maximum = 0.015 (at node 10)
Injected packet length average = 1
Accepted packet length average = 1
Total in-flight flits = 2 (2 measured)
latency change    = 0.0443334
throughput change = 0.0595238
Class 0:
Packet latency average = 24.8103
	minimum = 7
	maximum = 68
Network latency average = 24.8103
	minimum = 7
	maximum = 68
Slowest packet = 376
Flit latency average = 24.8761
	minimum = 7
	maximum = 68
Slowest flit = 376
Fragmentation average = 0
	minimum = 0
	maximum = 0
Injected packet rate average = 0.00983333
	minimum = 0.00666667 (at node 1)
	maximum = 0.0153333 (at node 3)
Accepted packet rate average = 0.00975
	minimum = 0.00666667 (at node 2)
	maximum = 0.0153333 (at node 12)
Injected flit rate average = 0.00983333
	minimum = 0.00666667 (at node 1)
	maximum = 0.0153333 (at node 3)
Accepted flit rate average= 0.00975
	minimum = 0.00666667 (at node 2)
	maximum = 0.0153333 (at node 12)
Injected packet length average = 1
Accepted packet length average = 1
Total in-flight flits = 4 (4 measured)
latency change    = 0.0134799
throughput change = 0.0769231
Class 0:
Packet latency average = 24.8813
	minimum = 7
	maximum = 68
Network latency average = 24.8813
	minimum = 7
	maximum = 68
Slowest packet = 376
Flit latency average = 24.9286
	minimum = 7
	maximum = 68
Slowest flit = 376
Fragmentation average = 0
	minimum = 0
	maximum = 0
Injected packet rate average = 0.0101875
	minimum = 0.0065 (at node 8)
	maximum = 0.014 (at node 10)
Accepted packet rate average = 0.0100625
	minimum = 0.0065 (at node 2)
	maximum = 0.014 (at node 10)
Injected flit rate average = 0.0101875
	minimum = 0.0065 (at node 8)
	maximum = 0.014 (at node 10)
Accepted flit rate average= 0.0100625
	minimum = 0.0065 (at node 2)
	maximum = 0.014 (at node 10)
Injected packet length average = 1
Accepted packet length average = 1
Total in-flight flits = 6 (6 measured)
latency change    = 0.00284974
throughput change = 0.0310559
Class 0:
Packet latency average = 24.9459
	minimum = 7
	maximum = 68
Network latency average = 24.9459
	minimum = 7
	maximum = 68
Slowest packet = 376
Flit latency average = 24.9829
	minimum = 7
	maximum = 68
Slowest flit = 376
Fragmentation average = 0
	minimum = 0
	maximum = 0
Injected packet rate average = 0.010275
	minimum = 0.0076 (at node 1)
	maximum = 0.0136 (at node 12)
Accepted packet rate average = 0.010225
	minimum = 0.0076 (at node 2)
	maximum = 0.0132 (at node 10)
Injected flit rate average = 0.010275
	minimum = 0.0076 (at node 1)
	maximum = 0.0136 (at node 12)
Accepted flit rate average= 0.010225
	minimum = 0.0076 (at node 2)
	maximum = 0.0132 (at node 10)
Injected packet length average = 1
Accepted packet length average = 1
Total in-flight flits = 4 (4 measured)
latency change    = 0.00259345
throughput change = 0.0158924
Class 0:
Packet latency average = 24.7474
	minimum = 7
	maximum = 68
Network latency average = 24.7474
	minimum = 7
	maximum = 68
Slowest packet = 376
Flit latency average = 24.7791
	minimum = 7
	maximum = 68
Slowest flit = 376
Fragmentation average = 0
	minimum = 0
	maximum = 0
Injected packet rate average = 0.0103125
	minimum = 0.00766667 (at node 1)
	maximum = 0.0136667 (at node 10)
Accepted packet rate average = 0.0101875
	minimum = 0.00766667 (at node 8)
	maximum = 0.0133333 (at node 10)
Injected flit rate average = 0.0103125
	minimum = 0.00766667 (at node 1)
	maximum = 0.0136667 (at node 10)
Accepted flit rate average= 0.0101875
	minimum = 0.00766667 (at node 8)
	maximum = 0.0133333 (at node 10)
Injected packet length average = 1
Accepted packet length average = 1
Total in-flight flits = 8 (8 measured)
latency change    = 0.00802155
throughput change = 0.00368098
Draining all recorded packets ...
Draining remaining packets ...
Time taken is 4563 cycles
Class 0:
Packet latency average = 20.3636
	minimum = 7
	maximum = 57
Network latency average = 20.3636
	minimum = 7
	maximum = 57
Slowest packet = 731
Flit latency average = 20.3636
	minimum = 7
	maximum = 57
Slowest flit = 731
Fragmentation average = 0
	minimum = 0
	maximum = 0
Injected packet rate average = 0.00875
	minimum = 0.004 (at node 7)
	maximum = 0.026 (at node 5)
Accepted packet rate average = 0.00825
	minimum = 0.004 (at node 2)
	maximum = 0.026 (at node 5)
Injected flit rate average = 0.00875
	minimum = 0.004 (at node 7)
	maximum = 0.026 (at node 5)
Accepted flit rate average= 0.00825
	minimum = 0.004 (at node 2)
	maximum = 0.026 (at node 5)
Injected packet length average = 1
Accepted packet length average = 1
Total in-flight flits = 4 (0 measured)
latency change    = 1
throughput change = 1
Class 0:
Packet latency average = 21.4841
	minimum = 7
	maximum = 57
Network latency average = 21.4841
	minimum = 7
	maximum = 57
Slowest packet = 731
Flit latency average = 21.4841
	minimum = 7
	maximum = 57
Slowest flit = 731
Fragmentation average = 0
	minimum = 0
	maximum = 0
Injected packet rate average = 0.01
	minimum = 0.005 (at node 2)
	maximum = 0.018 (at node 5)
Accepted packet rate average = 0.0098125
	minimum = 0.005 (at node 2)
	maximum = 0.018 (at node 5)
Injected flit rate average = 0.01
	minimum = 0.005 (at node 2)
	maximum = 0.018 (at node 5)
Accepted flit rate average= 0.0098125
	minimum = 0.005 (at node 2)
	maximum = 0.018 (at node 5)
Injected packet length average = 1
Accepted packet length average = 1
Total in-flight flits = 3 (0 measured)
latency change    = 0.0521521
throughput change = 0.159236
Class 0:
Packet latency average = 25.3867
	minimum = 7
	maximum = 65
Network latency average = 25.3867
	minimum = 7
	maximum = 65
Slowest packet = 904
Flit latency average = 25.3867
	minimum = 7
	maximum = 65
Slowest flit = 904
Fragmentation average = 0
	minimum = 0
	maximum = 0
Injected packet rate average = 0.009625
	minimum = 0.004 (at node 1)
	maximum = 0.018 (at node 9)
Accepted packet rate average = 0.009375
	minimum = 0.004 (at node 4)
	maximum = 0.014 (at node 6)
Injected flit rate average = 0.009625
	minimum = 0.004 (at node 1)
	maximum = 0.018 (at node 9)
Accepted flit rate average= 0.009375
	minimum = 0.004 (at node 4)
	maximum = 0.014 (at node 6)
Injected packet length average = 1
Accepted packet length average = 1
Total in-flight flits = 5 (0 measured)
latency change    = 0.153726
throughput change = 0.0466667
Warmed up ...Time used is 1500 cycles
Class 0:
Packet latency average = 24.1875
	minimum = 7
	maximum = 64
Network latency average = 24.1875
	minimum = 7
	maximum = 64
Slowest packet = 975
Flit latency average = 24.6471
	minimum = 7
	maximum = 64
Slowest flit = 975
Fragmentation average = 0
	minimum = 0
	maximum = 0
Injected packet rate average = 0.010625
	minimum = 0.004 (at node 6)
	maximum = 0.016 (at node 5)
Accepted packet rate average = 0.010625
	minimum = 0.004 (at node 9)
	maximum = 0.018 (at node 13)
Injected flit rate average = 0.010625
	minimum = 0.004 (at node 6)
	maximum = 0.016 (at node 5)
Accepted flit rate average= 0.010625
	minimum = 0.004 (at node 9)
	maximum = 0.018 (at node 13)
Injected packet length average = 1
Accepted packet length average = 1
Total in-flight flits = 5 (5 measured)
latency change    = 0.049578
throughput change = 0.117647
Class 0:
Packet latency average = 25.4425
	minimum = 7
	maximum = 65
Network latency average = 25.4425
	minimum = 7
	maximum = 65
Slowest packet = 1101
Flit latency average = 25.6257
	minimum = 7
	maximum = 65
Slowest flit = 1101
Fragmentation average = 0
	minimum = 0
	maximum = 0
Injected packet rate average = 0.0109375
	minimum = 0.007 (at node 6)
	maximum = 0.015 (at node 5)
Accepted packet rate average = 0.0111875
	minimum = 0.007 (at node 9)
	maximum = 0.015 (at node 5)
Injected flit rate average = 0.0109375
	minimum = 0.007 (at node 6)
	maximum = 0.015 (at node 5)
Accepted flit rate average= 0.0111875
	minimum = 0.007 (at node 9)
	maximum = 0.015 (at node 5)
Injected packet length average = 1
Accepted packet length average = 1
Total in-flight flits = 1 (1 measured)
latency change    = 0.049328
throughput change = 0.0502793
Class 0:
Packet latency average = 24.5375
	minimum = 7
	maximum = 65
Network latency average = 24.5375
	minimum = 7
	maximum = 65
Slowest packet = 1101
Flit latency average = 24.6822
	minimum = 7
	maximum = 65
Slowest flit = 1101
Fragmentation average = 0
	minimum = 0
	maximum = 0
Injected packet rate average = 0.01075
	minimum = 0.00866667 (at node 2)
	maximum = 0.0153333 (at node 5)
Accepted packet rate average = 0.01075
	minimum = 0.008 (at node 2)
	maximum = 0.0153333 (at node 5)
Injected flit rate average = 0.01075
	minimum = 0.00866667 (at node 2)
	maximum = 0.0153333 (at node 5)
Accepted flit rate average= 0.01075
	minimum = 0.008 (at node 2)
	maximum = 0.0153333 (at node 5)
Injected packet length average = 1
Accepted packet length average = 1
Total in-flight flits = 5 (5 measured)
latency change    = 0.0368814
throughput change = 0.0406977
Class 0:
Packet latency average = 24.5505
	minimum = 7
	maximum = 65
Network latency average = 24.5505
	minimum = 7
	maximum = 65
Slowest packet = 1101
Flit latency average = 24.6627
	minimum = 7
	maximum = 65
Slowest flit = 1101
Fragmentation average = 0
	minimum = 0
	maximum = 0
Injected packet rate average = 0.0104375
	minimum = 0.008 (at node 6)
	maximum = 0.015 (at node 3)
Accepted packet rate average = 0.010375
	minimum = 0.008 (at node 9)
	maximum = 0.014 (at node 12)
Injected flit rate average = 0.0104375
	minimum = 0.008 (at node 6)
	maximum = 0.015 (at node 3)
Accepted flit rate average= 0.010375
	minimum = 0.008 (at node 9)
	maximum = 0.014 (at node 12)
Injected packet length average = 1
Accepted packet length average = 1
Total in-flight flits = 7 (7 measured)
latency change    = 0.000525828
throughput change = 0.0361446
Class 0:
Packet latency average = 24.9363
	minimum = 7
	maximum = 65
Network latency average = 24.9363
	minimum = 7
	maximum = 65
Slowest packet = 1101
Flit latency average = 25.0218
	minimum = 7
	maximum = 65
Slowest flit = 1101
Fragmentation average = 0
	minimum = 0
	maximum = 0
Injected packet rate average = 0.01025
	minimum = 0.008 (at node 6)
	maximum = 0.0144 (at node 3)
Accepted packet rate average = 0.010325
	minimum = 0.0076 (at node 9)
	maximum = 0.0144 (at node 12)
Injected flit rate average = 0.01025
	minimum = 0.008 (at node 6)
	maximum = 0.0144 (at node 3)
Accepted flit rate average= 0.010325
	minimum = 0.0076 (at node 9)
	maximum = 0.0144 (at node 12)
Injected packet length average = 1
Accepted packet length average = 1
Total in-flight flits = 2 (2 measured)
latency change    = 0.0154721
throughput change = 0.00484262
Draining all recorded packets ...
Draining remaining packets ...
Time taken is 4107 cycles
Class 0:
Packet latency average = 23.6111
	minimum = 7
	maximum = 57
Network latency average = 23.6111
	minimum = 7
	maximum = 57
Slowest packet = 1390
Flit latency average = 23.6111
	minimum = 7
	maximum = 57
Slowest flit = 1390
Fragmentation average = 0
	minimum = 0
	maximum = 0
Injected packet rate average = 0.0115
	minimum = 0.006 (at node 5)
	maximum = 0.026 (at node 15)
Accepted packet rate average = 0.01125
	minimum = 0.006 (at node 3)
	maximum = 0.026 (at node 15)
Injected flit rate average = 0.0115
	minimum = 0.006 (at node 5)
	maximum = 0.026 (at node 15)
Accepted flit rate average= 0.01125
	minimum = 0.006 (at node 3)
	maximum = 0.026 (at node 15)
Injected packet length average = 1
Accepted packet length average = 1
Total in-flight flits = 2 (0 measured)
latency change    = 1
throughput change = 1
Class 0:
Packet latency average = 21.9558
	minimum = 7
	maximum = 65
Network latency average = 21.9558
	minimum = 7
	maximum = 65
Slowest packet = 1540
Flit latency average = 21.9558
	minimum = 7
	maximum = 65
Slowest flit = 1540
Fragmentation average = 0
	minimum = 0
	maximum = 0
Injected packet rate average = 0.0113125
	minimum = 0.006 (at node 7)
	maximum = 0.021 (at node 15)
Accepted packet rate average = 0.0113125
	minimum = 0.006 (at node 7)
	maximum = 0.021 (at node 15)
Injected flit rate average = 0.0113125
	minimum = 0.006 (at node 7)
	maximum = 0.021 (at node 15)
Accepted flit rate average= 0.0113125
	minimum = 0.006 (at node 7)
	maximum = 0.021 (at node 15)
Injected packet length average = 1
Accepted packet length average = 1
Total in-flight flits = 0 (0 measured)
latency change    = 0.0753928
throughput change = 0.00552486
Class 0:
Packet latency average = 25.3226
	minimum = 7
	maximum = 68
Network latency average = 25.3226
	minimum = 7
	maximum = 68
Slowest packet = 1582
Flit latency average = 25.3226
	minimum = 7
	maximum = 68
Slowest flit = 1582
Fragmentation average = 0
	minimum = 0
	maximum = 0
Injected packet rate average = 0.012125
	minimum = 0.004 (at node 9)
	maximum = 0.026 (at node 14)
Accepted packet rate average = 0.011625
	minimum = 0.004 (at node 6)
	maximum = 0.022 (at node 11)
Injected flit rate average = 0.012125
	minimum = 0.004 (at node 9)
	maximum = 0.026 (at node 14)
Accepted flit rate average= 0.011625
	minimum = 0.004 (at node 6)
	maximum = 0.022 (at node 11)
Injected packet length average = 1
Accepted packet length average = 1
Total in-flight flits = 4 (0 measured)
latency change    = 0.132956
throughput change = 0.0268817
Warmed up ...Time used is 1500 cycles
Class 0:
Packet latency average = 24.5663
	minimum = 7
	maximum = 61
Network latency average = 24.5663
	minimum = 7
	maximum = 61
Slowest packet = 1650
Flit latency average = 25.046
	minimum = 7
	maximum = 61
Slowest flit = 1650
Fragmentation average = 0
	minimum = 0
	maximum = 0
Injected packet rate average = 0.011125
	minimum = 0 (at node 3)
	maximum = 0.022 (at node 12)
Accepted packet rate average = 0.010875
	minimum = 0.002 (at node 12)
	maximum = 0.016 (at node 3)
Injected flit rate average = 0.011125
	minimum = 0 (at node 3)
	maximum = 0.022 (at node 12)
Accepted flit rate average= 0.010875
	minimum = 0.002 (at node 12)
	maximum = 0.016 (at node 3)
Injected packet length average = 1
Accepted packet length average = 1
Total in-flight flits = 6 (6 measured)
latency change    = 0.0307868
throughput change = 0.0689655
Class 0:
Packet latency average = 25.68
	minimum = 7
	maximum = 62
Network latency average = 25.68
	minimum = 7
	maximum = 62
Slowest packet = 1765
Flit latency average = 25.8883
	minimum = 7
	maximum = 62
Slowest flit = 1765
Fragmentation average = 0
	minimum = 0
	maximum = 0
Injected packet rate average = 0.011125
	minimum = 0.005 (at node 1)
	maximum = 0.018 (at node 12)
Accepted packet rate average = 0.0111875
	minimum = 0.004 (at node 4)
	maximum = 0.018 (at node 3)
Injected flit rate average = 0.011125
	minimum = 0.005 (at node 1)
	maximum = 0.018 (at node 12)
Accepted flit rate average= 0.0111875
	minimum = 0.004 (at node 4)
	maximum = 0.018 (at node 3)
Injected packet length average = 1
Accepted packet length average = 1
Total in-flight flits = 3 (3 measured)
latency change    = 0.0433697
throughput change = 0.027933
Class 0:
Packet latency average = 24.7917
	minimum = 7
	maximum = 62
Network latency average = 24.7917
	minimum = 7
	maximum = 62
Slowest packet = 1765
Flit latency average = 24.944
	minimum = 7
	maximum = 62
Slowest flit = 1765
Fragmentation average = 0
	minimum = 0
	maximum = 0
Injected packet rate average = 0.011125
	minimum = 0.00666667 (at node 9)
	maximum = 0.016 (at node 12)
Accepted packet rate average = 0.0111667
	minimum = 0.00666667 (at node 6)
	maximum = 0.016 (at node 3)
Injected flit rate average = 0.011125
	minimum = 0.00666667 (at node 9)
	maximum = 0.016 (at node 12)
Accepted flit rate average= 0.0111667
	minimum = 0.00666667 (at node 6)
	maximum = 0.016 (at node 3)
Injected packet length average = 1
Accepted packet length average = 1
Total in-flight flits = 3 (3 measured)
latency change    = 0.0358319
throughput change = 0.00186567
Class 0:
Packet latency average = 24.2957
	minimum = 7
	maximum = 62
Network latency average = 24.2957
	minimum = 7
	maximum = 62
Slowest packet = 1765
Flit latency average = 24.4183
	minimum = 7
	maximum = 62
Slowest flit = 1765
Fragmentation average = 0
	minimum = 0
	maximum = 0
Injected packet rate average = 0.0109375
	minimum = 0.0055 (at node 9)
	maximum = 0.014 (at node 2)
Accepted packet rate average = 0.0109062
	minimum = 0.0055 (at node 6)
	maximum = 0.014 (at node 8)
Injected flit rate average = 0.0109375
	minimum = 0.0055 (at node 9)
	maximum = 0.014 (at node 2)
Accepted flit rate average= 0.0109062
	minimum = 0.0055 (at node 6)
	maximum = 0.014 (at node 8)
Injected packet length average = 1
Accepted packet length average = 1
Total in-flight flits = 5 (5 measured)
latency change    = 0.0204158
throughput change = 0.0238777
Draining all recorded packets ...
Draining remaining packets ...
Time taken is 3541 cycles
Class 0:
Packet latency average = 24.5522
	minimum = 7
	maximum = 60
Network latency average = 24.5522
	minimum = 7
	maximum = 60
Slowest packet = 2015
Flit latency average = 24.5522
	minimum = 7
	maximum = 60
Slowest flit = 2015
Fragmentation average = 0
	minimum = 0
	maximum = 0
Injected packet rate average = 0.00875
	minimum = 0.002 (at node 10)
	maximum = 0.014 (at node 3)
Accepted packet rate average = 0.008375
	minimum = 0.002 (at node 10)
	maximum = 0.012 (at node 0)
Injected flit rate average = 0.00875
	minimum = 0.002 (at node 10)
	maximum = 0.014 (at node 3)
Accepted flit rate average= 0.008375
	minimum = 0.002 (at node 10)
	maximum = 0.012 (at node 0)
Injected packet length average = 1
Accepted packet length average = 1
Total in-flight flits = 3 (0 measured)
latency change    = 1
throughput change = 1
Class 0:
Packet latency average = 24.9653
	minimum = 7
	maximum = 75
Network latency average = 24.9653
	minimum = 7
	maximum = 75
Slowest packet = 2072
Flit latency average = 24.9653
	minimum = 7
	maximum = 75
Slowest flit = 2072
Fragmentation average = 0
	minimum = 0
	maximum = 0
Injected packet rate average = 0.0094375
	minimum = 0.003 (at node 10)
	maximum = 0.015 (at node 0)
Accepted packet rate average = 0.009
	minimum = 0.003 (at node 10)
	maximum = 0.015 (at node 0)
Injected flit rate average = 0.0094375
	minimum = 0.003 (at node 10)
	maximum = 0.015 (at node 0)
Accepted flit rate average= 0.009
	minimum = 0.003 (at node 10)
	maximum = 0.015 (at node 0)
Injected packet length average = 1
Accepted packet length average = 1
Total in-flight flits = 7 (0 measured)
latency change    = 0.0165445
throughput change = 0.0694444
Class 0:
Packet latency average = 26.3256
	minimum = 7
	maximum = 62
Network latency average = 26.3256
	minimum = 7
	maximum = 62
Slowest packet = 2145
Flit latency average = 26.3256
	minimum = 7
	maximum = 62
Slowest flit = 2145
Fragmentation average = 0
	minimum = 0
	maximum = 0
Injected packet rate average = 0.0105
	minimum = 0.002 (at node 5)
	maximum = 0.022 (at node 14)
Accepted packet rate average = 0.01075
	minimum = 0.004 (at node 5)
	maximum = 0.022 (at node 11)
Injected flit rate average = 0.0105
	minimum = 0.002 (at node 5)
	maximum = 0.022 (at node 14)
Accepted flit rate average= 0.01075
	minimum = 0.004 (at node 5)
	maximum = 0.022 (at node 11)
Injected packet length average = 1
Accepted packet length average = 1
Total in-flight flits = 5 (0 measured)
latency change    = 0.0516723
throughput change = 0.162791
Warmed up ...Time used is 1500 cycles
Class 0:
Packet latency average = 25.4028
	minimum = 7
	maximum = 63
Network latency average = 25.4028
	minimum = 7
	maximum = 63
Slowest packet = 2241
Flit latency average = 26.4286
	minimum = 7
	maximum = 65
Slowest flit = 2227
Fragmentation average = 0
	minimum = 0
	maximum = 0
Injected packet rate average = 0.009875
	minimum = 0.004 (at node 8)
	maximum = 0.018 (at node 4)
Accepted packet rate average = 0.009625
	minimum = 0.004 (at node 2)
	maximum = 0.016 (at node 1)
Injected flit rate average = 0.009875
	minimum = 0.004 (at node 8)
	maximum = 0.018 (at node 4)
Accepted flit rate average= 0.009625
	minimum = 0.004 (at node 2)
	maximum = 0.016 (at node 1)
Injected packet length average = 1
Accepted packet length average = 1
Total in-flight flits = 7 (7 measured)
latency change    = 0.0363269
throughput change = 0.116883
Class 0:
Packet latency average = 23.6067
	minimum = 7
	maximum = 63
Network latency average = 23.6067
	minimum = 7
	maximum = 63
Slowest packet = 2241
Flit latency average = 24.1742
	minimum = 7
	maximum = 65
Slowest flit = 2227
Fragmentation average = 0
	minimum = 0
	maximum = 0
Injected packet rate average = 0.0094375
	minimum = 0.005 (at node 14)
	maximum = 0.015 (at node 5)
Accepted packet rate average = 0.0096875
	minimum = 0.005 (at node 11)
	maximum = 0.015 (at node 5)
Injected flit rate average = 0.0094375
	minimum = 0.005 (at node 14)
	maximum = 0.015 (at node 5)
Accepted flit rate average= 0.0096875
	minimum = 0.005 (at node 11)
	maximum = 0.015 (at node 5)
Injected packet length average = 1
Accepted packet length average = 1
Total in-flight flits = 1 (1 measured)
latency change    = 0.0760849
throughput change = 0.00645161
Class 0:
Packet latency average = 23.7325
	minimum = 7
	maximum = 63
Network latency average = 23.7325
	minimum = 7
	maximum = 63
Slowest packet = 2241
Flit latency average = 24.1073
	minimum = 7
	maximum = 65
Slowest flit = 2227
Fragmentation average = 0
	minimum = 0
	maximum = 0
Injected packet rate average = 0.00983333
	minimum = 0.006 (at node 3)
	maximum = 0.0126667 (at node 5)
Accepted packet rate average = 0.00970833
	minimum = 0.006 (at node 12)
	maximum = 0.0126667 (at node 5)
Injected flit rate average = 0.00983333
	minimum = 0.006 (at node 3)
	maximum = 0.0126667 (at node 5)
Accepted flit rate average= 0.00970833
	minimum = 0.006 (at node 12)
	maximum = 0.0126667 (at node 5)
Injected packet length average = 1
Accepted packet length average = 1
Total in-flight flits = 8 (8 measured)
latency change    = 0.00530031
throughput change = 0.00214592
Class 0:
Packet latency average = 23.4099
	minimum = 7
	maximum = 63
Network latency average = 23.4099
	minimum = 7
	maximum = 63
Slowest packet = 2241
Flit latency average = 23.682
	minimum = 7
	maximum = 65
Slowest flit = 2227
Fragmentation average = 0
	minimum = 0
	maximum = 0
Injected packet rate average = 0.0101563
	minimum = 0.0065 (at node 3)
	maximum = 0.012 (at node 4)
Accepted packet rate average = 0.0102188
	minimum = 0.0065 (at node 12)
	maximum = 0.012 (at node 1)
Injected flit rate average = 0.0101563
	minimum = 0.0065 (at node 3)
	maximum = 0.012 (at node 4)
Accepted flit rate average= 0.0102188
	minimum = 0.0065 (at node 12)
	maximum = 0.012 (at node 1)
Injected packet length average = 1
Accepted packet length average = 1
Total in-flight flits = 3 (3 measured)
latency change    = 0.013777
throughput change = 0.049949
Class 0:
Packet latency average = 23.3177
	minimum = 7
	maximum = 63
Network latency average = 23.3177
	minimum = 7
	maximum = 63
Slowest packet = 2241
Flit latency average = 23.5353
	minimum = 7
	maximum = 65
Slowest flit = 2227
Fragmentation average = 0
	minimum = 0
	maximum = 0
Injected packet rate average = 0.01025
	minimum = 0.008 (at node 2)
	maximum = 0.0124 (at node 0)
Accepted packet rate average = 0.010275
	minimum = 0.008 (at node 11)
	maximum = 0.0124 (at node 4)
Injected flit rate average = 0.01025
	minimum = 0.008 (at node 2)
	maximum = 0.0124 (at node 0)
Accepted flit rate average= 0.010275
	minimum = 0.008 (at node 11)
	maximum = 0.0124 (at node 4)
Injected packet length average = 1
Accepted packet length average = 1
Total in-flight flits = 4 (4 measured)
latency change    = 0.00395424
throughput change = 0.00547445
Draining all recorded packets ...
Draining remaining packets ...
Time taken is 4081 cycles
Class 0:
Packet latency average = 25.8052
	minimum = 7
	maximum = 64
Network latency average = 25.8052
	minimum = 7
	maximum = 64
Slowest packet = 2663
Flit latency average = 25.8052
	minimum = 7
	maximum = 64
Slowest flit = 2663
Fragmentation average = 0
	minimum = 0
	maximum = 0
Injected packet rate average = 0.010125
	minimum = 0.004 (at node 0)
	maximum = 0.016 (at node 3)
Accepted packet rate average = 0.009625
	minimum = 0.004 (at node 0)
	maximum = 0.016 (at node 12)
Injected flit rate average = 0.010125
	minimum = 0.004 (at node 0)
	maximum = 0.016 (at node 3)
Accepted flit rate average= 0.009625
	minimum = 0.004 (at node 0)
	maximum = 0.016 (at node 12)
Injected packet length average = 1
Accepted packet length average = 1
Total in-flight flits = 4 (0 measured)
latency change    = 1
throughput change = 1
Class 0:
Packet latency average = 24.4266
	minimum = 7
	maximum = 76
Network latency average = 24.4266
	minimum = 7
	maximum = 76
Slowest packet = 2764
Flit latency average = 24.4266
	minimum = 7
	maximum = 76
Slowest flit = 2764
Fragmentation average = 0
	minimum = 0
	maximum = 0
Injected packet rate average = 0.0091875
	minimum = 0.002 (at node 7)
	maximum = 0.015 (at node 6)
Accepted packet rate average = 0.0089375
	minimum = 0.002 (at node 13)
	maximum = 0.014 (at node 2)
Injected flit rate average = 0.0091875
	minimum = 0.002 (at node 7)
	maximum = 0.015 (at node 6)
Accepted flit rate average= 0.0089375
	minimum = 0.002 (at node 13)
	maximum = 0.014 (at node 2)
Injected packet length average = 1
Accepted packet length average = 1
Total in-flight flits = 4 (0 measured)
latency change    = 0.0564394
throughput change = 0.0769231
Class 0:
Packet latency average = 24.3151
	minimum = 7
	maximum = 57
Network latency average = 24.3151
	minimum = 7
	maximum = 57
Slowest packet = 2788
Flit latency average = 24.3151
	minimum = 7
	maximum = 57
Slowest flit = 2788
Fragmentation average = 0
	minimum = 0
	maximum = 0
Injected packet rate average = 0.009
	minimum = 0.002 (at node 8)
	maximum = 0.016 (at node 6)
Accepted packet rate average = 0.009125
	minimum = 0.002 (at node 2)
	maximum = 0.018 (at node 9)
Injected flit rate average = 0.009
	minimum = 0.002 (at node 8)
	maximum = 0.016 (at node 6)
Accepted flit rate average= 0.009125
	minimum = 0.002 (at node 2)
	maximum = 0.018 (at node 9)
Injected packet length average = 1
Accepted packet length average = 1
Total in-flight flits = 3 (0 measured)
latency change    = 0.00458584
throughput change = 0.0205479
Warmed up ...Time used is 1500 cycles
Class 0:
Packet latency average = 22.1781
	minimum = 7
	maximum = 57
Network latency average = 22.1781
	minimum = 7
	maximum = 57
Slowest packet = 2886
Flit latency average = 22.6316
	minimum = 7
	maximum = 57
Slowest flit = 2886
Fragmentation average = 0
	minimum = 0
	maximum = 0
Injected packet rate average = 0.009375
	minimum = 0.002 (at node 10)
	maximum = 0.02 (at node 0)
Accepted packet rate average = 0.0095
	minimum = 0.002 (at node 10)
	maximum = 0.02 (at node 0)
Injected flit rate average = 0.009375
	minimum = 0.002 (at node 10)
	maximum = 0.02 (at node 0)
Accepted flit rate average= 0.0095
	minimum = 0.002 (at node 10)
	maximum = 0.02 (at node 0)
Injected packet length average = 1
Accepted packet length average = 1
Total in-flight flits = 2 (2 measured)
latency change    = 0.0963558
throughput change = 0.0394737
Class 0:
Packet latency average = 22.9085
	minimum = 7
	maximum = 61
Network latency average = 22.9085
	minimum = 7
	maximum = 61
Slowest packet = 2979
Flit latency average = 23.131
	minimum = 7
	maximum = 61
Slowest flit = 2979
Fragmentation average = 0
	minimum = 0
	maximum = 0
Injected packet rate average = 0.0091875
	minimum = 0.005 (at node 10)
	maximum = 0.016 (at node 0)
Accepted packet rate average = 0.0090625
	minimum = 0.005 (at node 10)
	maximum = 0.015 (at node 0)
Injected flit rate average = 0.0091875
	minimum = 0.005 (at node 10)
	maximum = 0.016 (at node 0)
Accepted flit rate average= 0.0090625
	minimum = 0.005 (at node 10)
	maximum = 0.015 (at node 0)
Injected packet length average = 1
Accepted packet length average = 1
Total in-flight flits = 5 (5 measured)
latency change    = 0.0318821
throughput change = 0.0482759
Class 0:
Packet latency average = 24.3544
	minimum = 7
	maximum = 61
Network latency average = 24.3544
	minimum = 7
	maximum = 61
Slowest packet = 2979
Flit latency average = 24.488
	minimum = 7
	maximum = 61
Slowest flit = 2979
Fragmentation average = 0
	minimum = 0
	maximum = 0
Injected packet rate average = 0.00879167
	minimum = 0.004 (at node 10)
	maximum = 0.012 (at node 0)
Accepted packet rate average = 0.00870833
	minimum = 0.004 (at node 10)
	maximum = 0.012 (at node 0)
Injected flit rate average = 0.00879167
	minimum = 0.004 (at node 10)
	maximum = 0.012 (at node 0)
Accepted flit rate average= 0.00870833
	minimum = 0.004 (at node 10)
	maximum = 0.012 (at node 0)
Injected packet length average = 1
Accepted packet length average = 1
Total in-flight flits = 5 (5 measured)
latency change    = 0.05937
throughput change = 0.0406699
Class 0:
Packet latency average = 25.9727
	minimum = 7
	maximum = 71
Network latency average = 25.9727
	minimum = 7
	maximum = 71
Slowest packet = 3110
Flit latency average = 26.0507
	minimum = 7
	maximum = 71
Slowest flit = 3110
Fragmentation average = 0
	minimum = 0
	maximum = 0
Injected packet rate average = 0.00921875
	minimum = 0.005 (at node 10)
	maximum = 0.015 (at node 12)
Accepted packet rate average = 0.00925
	minimum = 0.005 (at node 10)
	maximum = 0.014 (at node 3)
Injected flit rate average = 0.00921875
	minimum = 0.005 (at node 10)
	maximum = 0.015 (at node 12)
Accepted flit rate average= 0.00925
	minimum = 0.005 (at node 10)
	maximum = 0.014 (at node 3)
Injected packet length average = 1
Accepted packet length average = 1
Total in-flight flits = 2 (2 measured)
latency change    = 0.0623088
throughput change = 0.0585586
Class 0:
Packet latency average = 25.8224
	minimum = 7
	maximum = 71
Network latency average = 25.8224
	minimum = 7
	maximum = 71
Slowest packet = 3110
Flit latency average = 25.8862
	minimum = 7
	maximum = 71
Slowest flit = 3110
Fragmentation average = 0
	minimum = 0
	maximum = 0
Injected packet rate average = 0.00925
	minimum = 0.006 (at node 10)
	maximum = 0.0144 (at node 12)
Accepted packet rate average = 0.009225
	minimum = 0.006 (at node 10)
	maximum = 0.014 (at node 3)
Injected flit rate average = 0.00925
	minimum = 0.006 (at node 10)
	maximum = 0.0144 (at node 12)
Accepted flit rate average= 0.009225
	minimum = 0.006 (at node 10)
	maximum = 0.014 (at node 3)
Injected packet length average = 1
Accepted packet length average = 1
Total in-flight flits = 4 (4 measured)
latency change    = 0.00582021
throughput change = 0.00271003
Class 0:
Packet latency average = 25.3758
	minimum = 7
	maximum = 71
Network latency average = 25.3758
	minimum = 7
	maximum = 71
Slowest packet = 3110
Flit latency average = 25.4292
	minimum = 7
	maximum = 71
Slowest flit = 3110
Fragmentation average = 0
	minimum = 0
	maximum = 0
Injected packet rate average = 0.00970833
	minimum = 0.007 (at node 4)
	maximum = 0.014 (at node 12)
Accepted packet rate average = 0.00970833
	minimum = 0.00733333 (at node 1)
	maximum = 0.014 (at node 3)
Injected flit rate average = 0.00970833
	minimum = 0.007 (at node 4)
	maximum = 0.014 (at node 12)
Accepted flit rate average= 0.00970833
	minimum = 0.00733333 (at node 1)
	maximum = 0.014 (at node 3)
Injected packet length average = 1
Accepted packet length average = 1
Total in-flight flits = 3 (3 measured)
latency change    = 0.0175992
throughput change = 0.0497854
Class 0:
Packet latency average = 25.1785
	minimum = 7
	maximum = 71
Network latency average = 25.1785
	minimum = 7
	maximum = 71
Slowest packet = 3110
Flit latency average = 25.2246
	minimum = 7
	maximum = 71
Slowest flit = 3110
Fragmentation average = 0
	minimum = 0
	maximum = 0
Injected packet rate average = 0.00983929
	minimum = 0.00742857 (at node 10)
	maximum = 0.0134286 (at node 12)
Accepted packet rate average = 0.00985714
	minimum = 0.00742857 (at node 10)
	maximum = 0.0134286 (at node 3)
Injected flit rate average = 0.00983929
	minimum = 0.00742857 (at node 10)
	maximum = 0.0134286 (at node 12)
Accepted flit rate average= 0.00985714
	minimum = 0.00742857 (at node 10)
	maximum = 0.0134286 (at node 3)
Injected packet length average = 1
Accepted packet length average = 1
Total in-flight flits = 2 (2 measured)
latency change    = 0.00783619
throughput change = 0.0150966
Draining all recorded packets ...
Draining remaining packets ...
Time taken is 5062 cycles
Class 0:
Packet latency average = 23.6329
	minimum = 7
	maximum = 57
Network latency average = 23.6329
	minimum = 7
	maximum = 57
Slowest packet = 3444
Flit latency average = 23.6329
	minimum = 7
	maximum = 57
Slowest flit = 3444
Fragmentation average = 0
	minimum = 0
	maximum = 0
Injected packet rate average = 0.01025
	minimum = 0.004 (at node 9)
	maximum = 0.016 (at node 11)
Accepted packet rate average = 0.009875
	minimum = 0.004 (at node 6)
	maximum = 0.016 (at node 14)
Injected flit rate average = 0.01025
	minimum = 0.004 (at node 9)
	maximum = 0.016 (at node 11)
Accepted flit rate average= 0.009875
	minimum = 0.004 (at node 6)
	maximum = 0.016 (at node 14)
Injected packet length average = 1
Accepted packet length average = 1
Total in-flight flits = 3 (0 measured)
latency change    = 1
throughput change = 1
Class 0:
Packet latency average = 23.5886
	minimum = 7
	maximum = 72
Network latency average = 23.5886
	minimum = 7
	maximum = 72
Slowest packet = 3554
Flit latency average = 23.5886
	minimum = 7
	maximum = 72
Slowest flit = 3554
Fragmentation average = 0
	minimum = 0
	maximum = 0
Injected packet rate average = 0.01
	minimum = 0.005 (at node 12)
	maximum = 0.015 (at node 13)
Accepted packet rate average = 0.009875
	minimum = 0.005 (at node 3)
	maximum = 0.014 (at node 7)
Injected flit rate average = 0.01
	minimum = 0.005 (at node 12)
	maximum = 0.015 (at node 13)
Accepted flit rate average= 0.009875
	minimum = 0.005 (at node 3)
	maximum = 0.014 (at node 7)
Injected packet length average = 1
Accepted packet length average = 1
Total in-flight flits = 2 (0 measured)
latency change    = 0.00187819
throughput change = 0
Class 0:
Packet latency average = 24.0741
	minimum = 7
	maximum = 65
Network latency average = 24.0741
	minimum = 7
	maximum = 65
Slowest packet = 3621
Flit latency average = 24.0741
	minimum = 7
	maximum = 65
Slowest flit = 3621
Fragmentation average = 0
	minimum = 0
	maximum = 0
Injected packet rate average = 0.01075
	minimum = 0.002 (at node 10)
	maximum = 0.018 (at node 7)
Accepted packet rate average = 0.010125
	minimum = 0.002 (at node 10)
	maximum = 0.018 (at node 6)
Injected flit rate average = 0.01075
	minimum = 0.002 (at node 10)
	maximum = 0.018 (at node 7)
Accepted flit rate average= 0.010125
	minimum = 0.002 (at node 10)
	maximum = 0.018 (at node 6)
Injected packet length average = 1
Accepted packet length average = 1
Total in-flight flits = 7 (0 measured)
latency change    = 0.0201655
throughput change = 0.0246914
Warmed up ...Time used is 1500 cycles
Class 0:
Packet latency average = 27.3699
	minimum = 7
	maximum = 70
Network latency average = 27.3699
	minimum = 7
	maximum = 70
Slowest packet = 3675
Flit latency average = 28.3875
	minimum = 7
	maximum = 70
Slowest flit = 3675
Fragmentation average = 0
	minimum = 0
	maximum = 0
Injected packet rate average = 0.0095
	minimum = 0.004 (at node 1)
	maximum = 0.016 (at node 13)
Accepted packet rate average = 0.01
	minimum = 0.004 (at node 4)
	maximum = 0.018 (at node 3)
Injected flit rate average = 0.0095
	minimum = 0.004 (at node 1)
	maximum = 0.016 (at node 13)
Accepted flit rate average= 0.01
	minimum = 0.004 (at node 4)
	maximum = 0.018 (at node 3)
Injected packet length average = 1
Accepted packet length average = 1
Total in-flight flits = 3 (3 measured)
latency change    = 0.120417
throughput change = 0.0125
Class 0:
Packet latency average = 26.0892
	minimum = 7
	maximum = 71
Network latency average = 26.0892
	minimum = 7
	maximum = 71
Slowest packet = 3756
Flit latency average = 26.6402
	minimum = 7
	maximum = 71
Slowest flit = 3756
Fragmentation average = 0
	minimum = 0
	maximum = 0
Injected packet rate average = 0.009875
	minimum = 0.003 (at node 1)
	maximum = 0.015 (at node 8)
Accepted packet rate average = 0.01025
	minimum = 0.003 (at node 4)
	maximum = 0.016 (at node 3)
Injected flit rate average = 0.009875
	minimum = 0.003 (at node 1)
	maximum = 0.015 (at node 8)
Accepted flit rate average= 0.01025
	minimum = 0.003 (at node 4)
	maximum = 0.016 (at node 3)
Injected packet length average = 1
Accepted packet length average = 1
Total in-flight flits = 1 (1 measured)
latency change    = 0.049089
throughput change = 0.0243902
Class 0:
Packet latency average = 26.1651
	minimum = 7
	maximum = 71
Network latency average = 26.1651
	minimum = 7
	maximum = 71
Slowest packet = 3756
Flit latency average = 26.5644
	minimum = 7
	maximum = 71
Slowest flit = 3756
Fragmentation average = 0
	minimum = 0
	maximum = 0
Injected packet rate average = 0.009125
	minimum = 0.00466667 (at node 1)
	maximum = 0.0146667 (at node 8)
Accepted packet rate average = 0.009375
	minimum = 0.00466667 (at node 4)
	maximum = 0.0146667 (at node 2)
Injected flit rate average = 0.009125
	minimum = 0.00466667 (at node 1)
	maximum = 0.0146667 (at node 8)
Accepted flit rate average= 0.009375
	minimum = 0.00466667 (at node 4)
	maximum = 0.0146667 (at node 2)
Injected packet length average = 1
Accepted packet length average = 1
Total in-flight flits = 1 (1 measured)
latency change    = 0.00290332
throughput change = 0.0933333
Class 0:
Packet latency average = 25.1701
	minimum = 7
	maximum = 71
Network latency average = 25.1701
	minimum = 7
	maximum = 71
Slowest packet = 3756
Flit latency average = 25.4983
	minimum = 7
	maximum = 71
Slowest flit = 3756
Fragmentation average = 0
	minimum = 0
	maximum = 0
Injected packet rate average = 0.009125
	minimum = 0.005 (at node 1)
	maximum = 0.014 (at node 8)
Accepted packet rate average = 0.00921875
	minimum = 0.005 (at node 4)
	maximum = 0.0135 (at node 2)
Injected flit rate average = 0.009125
	minimum = 0.005 (at node 1)
	maximum = 0.014 (at node 8)
Accepted flit rate average= 0.00921875
	minimum = 0.005 (at node 4)
	maximum = 0.0135 (at node 2)
Injected packet length average = 1
Accepted packet length average = 1
Total in-flight flits = 4 (4 measured)
latency change    = 0.0395309
throughput change = 0.0169492
Class 0:
Packet latency average = 25.3753
	minimum = 7
	maximum = 71
Network latency average = 25.3753
	minimum = 7
	maximum = 71
Slowest packet = 3756
Flit latency average = 25.6317
	minimum = 7
	maximum = 71
Slowest flit = 3756
Fragmentation average = 0
	minimum = 0
	maximum = 0
Injected packet rate average = 0.009225
	minimum = 0.0064 (at node 5)
	maximum = 0.0128 (at node 12)
Accepted packet rate average = 0.0093
	minimum = 0.0068 (at node 0)
	maximum = 0.0136 (at node 3)
Injected flit rate average = 0.009225
	minimum = 0.0064 (at node 5)
	maximum = 0.0128 (at node 12)
Accepted flit rate average= 0.0093
	minimum = 0.0068 (at node 0)
	maximum = 0.0136 (at node 3)
Injected packet length average = 1
Accepted packet length average = 1
Total in-flight flits = 4 (4 measured)
latency change    = 0.00808673
throughput change = 0.00873656
Class 0:
Packet latency average = 25.8733
	minimum = 7
	maximum = 71
Network latency average = 25.8733
	minimum = 7
	maximum = 71
Slowest packet = 3756
Flit latency average = 26.078
	minimum = 7
	maximum = 71
Slowest flit = 3756
Fragmentation average = 0
	minimum = 0
	maximum = 0
Injected packet rate average = 0.00935417
	minimum = 0.00533333 (at node 5)
	maximum = 0.0133333 (at node 12)
Accepted packet rate average = 0.00935417
	minimum = 0.00566667 (at node 5)
	maximum = 0.014 (at node 3)
Injected flit rate average = 0.00935417
	minimum = 0.00533333 (at node 5)
	maximum = 0.0133333 (at node 12)
Accepted flit rate average= 0.00935417
	minimum = 0.00566667 (at node 5)
	maximum = 0.014 (at node 3)
Injected packet length average = 1
Accepted packet length average = 1
Total in-flight flits = 7 (7 measured)
latency change    = 0.0192461
throughput change = 0.00579065
Draining all recorded packets ...
Draining remaining packets ...
Time taken is 4553 cycles
Class 0:
Packet latency average = 25.1098
	minimum = 7
	maximum = 65
Network latency average = 25.1098
	minimum = 7
	maximum = 65
Slowest packet = 4164
Flit latency average = 25.1098
	minimum = 7
	maximum = 65
Slowest flit = 4164
Fragmentation average = 0
	minimum = 0
	maximum = 0
Injected packet rate average = 0.010375
	minimum = 0.004 (at node 12)
	maximum = 0.024 (at node 3)
Accepted packet rate average = 0.01025
	minimum = 0.004 (at node 3)
	maximum = 0.022 (at node 12)
Injected flit rate average = 0.010375
	minimum = 0.004 (at node 12)
	maximum = 0.024 (at node 3)
Accepted flit rate average= 0.01025
	minimum = 0.004 (at node 3)
	maximum = 0.022 (at node 12)
Injected packet length average = 1
Accepted packet length average = 1
Total in-flight flits = 1 (0 measured)
latency change    = 1
throughput change = 1
Class 0:
Packet latency average = 24.0617
	minimum = 7
	maximum = 65
Network latency average = 24.0617
	minimum = 7
	maximum = 65
Slowest packet = 4164
Flit latency average = 24.0617
	minimum = 7
	maximum = 65
Slowest flit = 4164
Fragmentation average = 0
	minimum = 0
	maximum = 0
Injected packet rate average = 0.0101875
	minimum = 0.003 (at node 12)
	maximum = 0.019 (at node 4)
Accepted packet rate average = 0.010125
	minimum = 0.003 (at node 3)
	maximum = 0.019 (at node 1)
Injected flit rate average = 0.0101875
	minimum = 0.003 (at node 12)
	maximum = 0.019 (at node 4)
Accepted flit rate average= 0.010125
	minimum = 0.003 (at node 3)
	maximum = 0.019 (at node 1)
Injected packet length average = 1
Accepted packet length average = 1
Total in-flight flits = 1 (0 measured)
latency change    = 0.0435558
throughput change = 0.0123457
Class 0:
Packet latency average = 22.6707
	minimum = 7
	maximum = 61
Network latency average = 22.6707
	minimum = 7
	maximum = 61
Slowest packet = 4298
Flit latency average = 22.6707
	minimum = 7
	maximum = 61
Slowest flit = 4298
Fragmentation average = 0
	minimum = 0
	maximum = 0
Injected packet rate average = 0.01025
	minimum = 0.006 (at node 8)
	maximum = 0.018 (at node 10)
Accepted packet rate average = 0.01025
	minimum = 0.006 (at node 2)
	maximum = 0.018 (at node 10)
Injected flit rate average = 0.01025
	minimum = 0.006 (at node 8)
	maximum = 0.018 (at node 10)
Accepted flit rate average= 0.01025
	minimum = 0.006 (at node 2)
	maximum = 0.018 (at node 10)
Injected packet length average = 1
Accepted packet length average = 1
Total in-flight flits = 1 (0 measured)
latency change    = 0.0613565
throughput change = 0.0121951
Warmed up ...Time used is 1500 cycles
Class 0:
Packet latency average = 25.1319
	minimum = 7
	maximum = 72
Network latency average = 25.1319
	minimum = 7
	maximum = 72
Slowest packet = 4411
Flit latency average = 25.0435
	minimum = 7
	maximum = 72
Slowest flit = 4411
Fragmentation average = 0
	minimum = 0
	maximum = 0
Injected packet rate average = 0.0115
	minimum = 0.006 (at node 1)
	maximum = 0.02 (at node 9)
Accepted packet rate average = 0.0115
	minimum = 0.006 (at node 1)
	maximum = 0.02 (at node 6)
Injected flit rate average = 0.0115
	minimum = 0.006 (at node 1)
	maximum = 0.02 (at node 9)
Accepted flit rate average= 0.0115
	minimum = 0.006 (at node 1)
	maximum = 0.02 (at node 6)
Injected packet length average = 1
Accepted packet length average = 1
Total in-flight flits = 1 (1 measured)
latency change    = 0.0979289
throughput change = 0.108696
Class 0:
Packet latency average = 24.0568
	minimum = 7
	maximum = 72
Network latency average = 24.0568
	minimum = 7
	maximum = 72
Slowest packet = 4411
Flit latency average = 24.0169
	minimum = 7
	maximum = 72
Slowest flit = 4411
Fragmentation average = 0
	minimum = 0
	maximum = 0
Injected packet rate average = 0.011375
	minimum = 0.005 (at node 1)
	maximum = 0.017 (at node 3)
Accepted packet rate average = 0.0110625
	minimum = 0.005 (at node 13)
	maximum = 0.016 (at node 8)
Injected flit rate average = 0.011375
	minimum = 0.005 (at node 1)
	maximum = 0.017 (at node 3)
Accepted flit rate average= 0.0110625
	minimum = 0.005 (at node 13)
	maximum = 0.016 (at node 8)
Injected packet length average = 1
Accepted packet length average = 1
Total in-flight flits = 6 (6 measured)
latency change    = 0.044688
throughput change = 0.039548
Class 0:
Packet latency average = 23.7619
	minimum = 7
	maximum = 72
Network latency average = 23.7619
	minimum = 7
	maximum = 72
Slowest packet = 4411
Flit latency average = 23.7372
	minimum = 7
	maximum = 72
Slowest flit = 4411
Fragmentation average = 0
	minimum = 0
	maximum = 0
Injected packet rate average = 0.0115833
	minimum = 0.00533333 (at node 7)
	maximum = 0.0186667 (at node 15)
Accepted packet rate average = 0.0114167
	minimum = 0.00533333 (at node 13)
	maximum = 0.0186667 (at node 15)
Injected flit rate average = 0.0115833
	minimum = 0.00533333 (at node 7)
	maximum = 0.0186667 (at node 15)
Accepted flit rate average= 0.0114167
	minimum = 0.00533333 (at node 13)
	maximum = 0.0186667 (at node 15)
Injected packet length average = 1
Accepted packet length average = 1
Total in-flight flits = 5 (5 measured)
latency change    = 0.0124112
throughput change = 0.0310219
Class 0:
Packet latency average = 23.4728
	minimum = 7
	maximum = 72
Network latency average = 23.4728
	minimum = 7
	maximum = 72
Slowest packet = 4411
Flit latency average = 23.4543
	minimum = 7
	maximum = 72
Slowest flit = 4411
Fragmentation average = 0
	minimum = 0
	maximum = 0
Injected packet rate average = 0.0109375
	minimum = 0.0055 (at node 7)
	maximum = 0.0155 (at node 15)
Accepted packet rate average = 0.0109375
	minimum = 0.0055 (at node 13)
	maximum = 0.0155 (at node 15)
Injected flit rate average = 0.0109375
	minimum = 0.0055 (at node 7)
	maximum = 0.0155 (at node 15)
Accepted flit rate average= 0.0109375
	minimum = 0.0055 (at node 13)
	maximum = 0.0155 (at node 15)
Injected packet length average = 1
Accepted packet length average = 1
Total in-flight flits = 1 (1 measured)
latency change    = 0.0123175
throughput change = 0.0438095
Draining all recorded packets ...
Draining remaining packets ...
Time taken is 3562 cycles
Class 0:
Packet latency average = 24.4051
	minimum = 7
	maximum = 58
Network latency average = 24.4051
	minimum = 7
	maximum = 58
Slowest packet = 4737
Flit latency average = 24.4051
	minimum = 7
	maximum = 58
Slowest flit = 4737
Fragmentation average = 0
	minimum = 0
	maximum = 0
Injected packet rate average = 0.0105
	minimum = 0.002 (at node 13)
	maximum = 0.022 (at node 3)
Accepted packet rate average = 0.009875
	minimum = 0 (at node 7)
	maximum = 0.02 (at node 1)
Injected flit rate average = 0.0105
	minimum = 0.002 (at node 13)
	maximum = 0.022 (at node 3)
Accepted flit rate average= 0.009875
	minimum = 0 (at node 7)
	maximum = 0.02 (at node 1)
Injected packet length average = 1
Accepted packet length average = 1
Total in-flight flits = 5 (0 measured)
latency change    = 1
throughput change = 1
Class 0:
Packet latency average = 24.9578
	minimum = 7
	maximum = 65
Network latency average = 24.9578
	minimum = 7
	maximum = 65
Slowest packet = 4846
Flit latency average = 24.9578
	minimum = 7
	maximum = 65
Slowest flit = 4846
Fragmentation average = 0
	minimum = 0
	maximum = 0
Injected packet rate average = 0.0108125
	minimum = 0.006 (at node 13)
	maximum = 0.017 (at node 4)
Accepted packet rate average = 0.010375
	minimum = 0.005 (at node 7)
	maximum = 0.017 (at node 1)
Injected flit rate average = 0.0108125
	minimum = 0.006 (at node 13)
	maximum = 0.017 (at node 4)
Accepted flit rate average= 0.010375
	minimum = 0.005 (at node 7)
	maximum = 0.017 (at node 1)
Injected packet length average = 1
Accepted packet length average = 1
Total in-flight flits = 7 (0 measured)
latency change    = 0.0221481
throughput change = 0.0481928
Class 0:
Packet latency average = 23.6301
	minimum = 7
	maximum = 68
Network latency average = 23.6301
	minimum = 7
	maximum = 68
Slowest packet = 4896
Flit latency average = 23.6301
	minimum = 7
	maximum = 68
Slowest flit = 4896
Fragmentation average = 0
	minimum = 0
	maximum = 0
Injected packet rate average = 0.00875
	minimum = 0.002 (at node 7)
	maximum = 0.016 (at node 1)
Accepted packet rate average = 0.009125
	minimum = 0.002 (at node 13)
	maximum = 0.02 (at node 11)
Injected flit rate average = 0.00875
	minimum = 0.002 (at node 7)
	maximum = 0.016 (at node 1)
Accepted flit rate average= 0.009125
	minimum = 0.002 (at node 13)
	maximum = 0.02 (at node 11)
Injected packet length average = 1
Accepted packet length average = 1
Total in-flight flits = 4 (0 measured)
latency change    = 0.0561865
throughput change = 0.136986
Warmed up ...Time used is 1500 cycles
Class 0:
Packet latency average = 24.5926
	minimum = 7
	maximum = 68
Network latency average = 24.5926
	minimum = 7
	maximum = 68
Slowest packet = 4988
Flit latency average = 25.0588
	minimum = 7
	maximum = 68
Slowest flit = 4988
Fragmentation average = 0
	minimum = 0
	maximum = 0
Injected packet rate average = 0.0105
	minimum = 0.006 (at node 2)
	maximum = 0.016 (at node 12)
Accepted packet rate average = 0.010625
	minimum = 0.004 (at node 6)
	maximum = 0.02 (at node 3)
Injected flit rate average = 0.0105
	minimum = 0.006 (at node 2)
	maximum = 0.016 (at node 12)
Accepted flit rate average= 0.010625
	minimum = 0.004 (at node 6)
	maximum = 0.02 (at node 3)
Injected packet length average = 1
Accepted packet length average = 1
Total in-flight flits = 3 (3 measured)
latency change    = 0.039136
throughput change = 0.141176
Class 0:
Packet latency average = 23.6875
	minimum = 7
	maximum = 68
Network latency average = 23.6875
	minimum = 7
	maximum = 68
Slowest packet = 4988
Flit latency average = 23.9797
	minimum = 7
	maximum = 68
Slowest flit = 4988
Fragmentation average = 0
	minimum = 0
	maximum = 0
Injected packet rate average = 0.0095625
	minimum = 0.007 (at node 1)
	maximum = 0.015 (at node 14)
Accepted packet rate average = 0.00925
	minimum = 0.006 (at node 13)
	maximum = 0.014 (at node 11)
Injected flit rate average = 0.0095625
	minimum = 0.007 (at node 1)
	maximum = 0.015 (at node 14)
Accepted flit rate average= 0.00925
	minimum = 0.006 (at node 13)
	maximum = 0.014 (at node 11)
Injected packet length average = 1
Accepted packet length average = 1
Total in-flight flits = 9 (9 measured)
latency change    = 0.0382097
throughput change = 0.148649
Class 0:
Packet latency average = 25.2457
	minimum = 7
	maximum = 85
Network latency average = 25.2457
	minimum = 7
	maximum = 85
Slowest packet = 5120
Flit latency average = 25.4025
	minimum = 7
	maximum = 85
Slowest flit = 5120
Fragmentation average = 0
	minimum = 0
	maximum = 0
Injected packet rate average = 0.00983333
	minimum = 0.00666667 (at node 0)
	maximum = 0.0133333 (at node 14)
Accepted packet rate average = 0.00983333
	minimum = 0.006 (at node 13)
	maximum = 0.0133333 (at node 11)
Injected flit rate average = 0.00983333
	minimum = 0.00666667 (at node 0)
	maximum = 0.0133333 (at node 14)
Accepted flit rate average= 0.00983333
	minimum = 0.006 (at node 13)
	maximum = 0.0133333 (at node 11)
Injected packet length average = 1
Accepted packet length average = 1
Total in-flight flits = 4 (4 measured)
latency change    = 0.061721
throughput change = 0.059322
Class 0:
Packet latency average = 25.0249
	minimum = 7
	maximum = 85
Network latency average = 25.0249
	minimum = 7
	maximum = 85
Slowest packet = 5120
Flit latency average = 25.1415
	minimum = 7
	maximum = 85
Slowest flit = 5120
Fragmentation average = 0
	minimum = 0
	maximum = 0
Injected packet rate average = 0.0101563
	minimum = 0.0065 (at node 0)
	maximum = 0.0135 (at node 14)
Accepted packet rate average = 0.0101563
	minimum = 0.007 (at node 0)
	maximum = 0.013 (at node 11)
Injected flit rate average = 0.0101563
	minimum = 0.0065 (at node 0)
	maximum = 0.0135 (at node 14)
Accepted flit rate average= 0.0101563
	minimum = 0.007 (at node 0)
	maximum = 0.013 (at node 11)
Injected packet length average = 1
Accepted packet length average = 1
Total in-flight flits = 4 (4 measured)
latency change    = 0.00882191
throughput change = 0.0317949
Class 0:
Packet latency average = 25.102
	minimum = 7
	maximum = 85
Network latency average = 25.102
	minimum = 7
	maximum = 85
Slowest packet = 5120
Flit latency average = 25.1946
	minimum = 7
	maximum = 85
Slowest flit = 5120
Fragmentation average = 0
	minimum = 0
	maximum = 0
Injected packet rate average = 0.010125
	minimum = 0.0052 (at node 0)
	maximum = 0.012 (at node 10)
Accepted packet rate average = 0.01015
	minimum = 0.0056 (at node 0)
	maximum = 0.012 (at node 10)
Injected flit rate average = 0.010125
	minimum = 0.0052 (at node 0)
	maximum = 0.012 (at node 10)
Accepted flit rate average= 0.01015
	minimum = 0.0056 (at node 0)
	maximum = 0.012 (at node 10)
Injected packet length average = 1
Accepted packet length average = 1
Total in-flight flits = 3 (3 measured)
latency change    = 0.00307019
throughput change = 0.000615764
Class 0:
Packet latency average = 24.5414
	minimum = 7
	maximum = 85
Network latency average = 24.5414
	minimum = 7
	maximum = 85
Slowest packet = 5120
Flit latency average = 24.6253
	minimum = 7
	maximum = 85
Slowest flit = 5120
Fragmentation average = 0
	minimum = 0
	maximum = 0
Injected packet rate average = 0.00985417
	minimum = 0.00666667 (at node 0)
	maximum = 0.0123333 (at node 11)
Accepted packet rate average = 0.00989583
	minimum = 0.007 (at node 0)
	maximum = 0.0123333 (at node 14)
Injected flit rate average = 0.00985417
	minimum = 0.00666667 (at node 0)
	maximum = 0.0123333 (at node 11)
Accepted flit rate average= 0.00989583
	minimum = 0.007 (at node 0)
	maximum = 0.0123333 (at node 14)
Injected packet length average = 1
Accepted packet length average = 1
Total in-flight flits = 2 (2 measured)
latency change    = 0.0228426
throughput change = 0.0256842
Draining all recorded packets ...
Draining remaining packets ...
Time taken is 4555 cycles
Class 0:
Packet latency average = 23.3636
	minimum = 7
	maximum = 57
Network latency average = 23.3636
	minimum = 7
	maximum = 57
Slowest packet = 5460
Flit latency average = 23.3636
	minimum = 7
	maximum = 57
Slowest flit = 5460
Fragmentation average = 0
	minimum = 0
	maximum = 0
Injected packet rate average = 0.01025
	minimum = 0.004 (at node 4)
	maximum = 0.02 (at node 11)
Accepted packet rate average = 0.009625
	minimum = 0.004 (at node 1)
	maximum = 0.018 (at node 14)
Injected flit rate average = 0.01025
	minimum = 0.004 (at node 4)
	maximum = 0.02 (at node 11)
Accepted flit rate average= 0.009625
	minimum = 0.004 (at node 1)
	maximum = 0.018 (at node 14)
Injected packet length average = 1
Accepted packet length average = 1
Total in-flight flits = 5 (0 measured)
latency change    = 1
throughput change = 1
Class 0:
Packet latency average = 23.5497
	minimum = 7
	maximum = 59
Network latency average = 23.5497
	minimum = 7
	maximum = 59
Slowest packet = 5583
Flit latency average = 23.5497
	minimum = 7
	maximum = 59
Slowest flit = 5583
Fragmentation average = 0
	minimum = 0
	maximum = 0
Injected packet rate average = 0.00975
	minimum = 0.005 (at node 4)
	maximum = 0.015 (at node 7)
Accepted packet rate average = 0.0094375
	minimum = 0.005 (at node 1)
	maximum = 0.014 (at node 13)
Injected flit rate average = 0.00975
	minimum = 0.005 (at node 4)
	maximum = 0.015 (at node 7)
Accepted flit rate average= 0.0094375
	minimum = 0.005 (at node 1)
	maximum = 0.014 (at node 13)
Injected packet length average = 1
Accepted packet length average = 1
Total in-flight flits = 5 (0 measured)
latency change    = 0.00789958
throughput change = 0.0198675
Class 0:
Packet latency average = 24.3373
	minimum = 7
	maximum = 72
Network latency average = 24.3373
	minimum = 7
	maximum = 72
Slowest packet = 5589
Flit latency average = 24.3373
	minimum = 7
	maximum = 72
Slowest flit = 5589
Fragmentation average = 0
	minimum = 0
	maximum = 0
Injected packet rate average = 0.01
	minimum = 0.002 (at node 3)
	maximum = 0.02 (at node 7)
Accepted packet rate average = 0.010375
	minimum = 0.002 (at node 12)
	maximum = 0.02 (at node 13)
Injected flit rate average = 0.01
	minimum = 0.002 (at node 3)
	maximum = 0.02 (at node 7)
Accepted flit rate average= 0.010375
	minimum = 0.002 (at node 12)
	maximum = 0.02 (at node 13)
Injected packet length average = 1
Accepted packet length average = 1
Total in-flight flits = 2 (0 measured)
latency change    = 0.0323651
throughput change = 0.0903614
Warmed up ...Time used is 1500 cycles
Class 0:
Packet latency average = 23.7436
	minimum = 7
	maximum = 57
Network latency average = 23.7436
	minimum = 7
	maximum = 57
Slowest packet = 5682
Flit latency average = 24.2
	minimum = 7
	maximum = 57
Slowest flit = 5682
Fragmentation average = 0
	minimum = 0
	maximum = 0
Injected packet rate average = 0.01
	minimum = 0 (at node 5)
	maximum = 0.022 (at node 10)
Accepted packet rate average = 0.01
	minimum = 0 (at node 5)
	maximum = 0.022 (at node 10)
Injected flit rate average = 0.01
	minimum = 0 (at node 5)
	maximum = 0.022 (at node 10)
Accepted flit rate average= 0.01
	minimum = 0 (at node 5)
	maximum = 0.022 (at node 10)
Injected packet length average = 1
Accepted packet length average = 1
Total in-flight flits = 2 (2 measured)
latency change    = 0.0250072
throughput change = 0.0375
Class 0:
Packet latency average = 24.1419
	minimum = 7
	maximum = 69
Network latency average = 24.1419
	minimum = 7
	maximum = 69
Slowest packet = 5773
Flit latency average = 24.38
	minimum = 7
	maximum = 69
Slowest flit = 5773
Fragmentation average = 0
	minimum = 0
	maximum = 0
Injected packet rate average = 0.0094375
	minimum = 0.006 (at node 0)
	maximum = 0.015 (at node 3)
Accepted packet rate average = 0.009375
	minimum = 0.006 (at node 0)
	maximum = 0.014 (at node 10)
Injected flit rate average = 0.0094375
	minimum = 0.006 (at node 0)
	maximum = 0.015 (at node 3)
Accepted flit rate average= 0.009375
	minimum = 0.006 (at node 0)
	maximum = 0.014 (at node 10)
Injected packet length average = 1
Accepted packet length average = 1
Total in-flight flits = 3 (3 measured)
latency change    = 0.0164984
throughput change = 0.0666667
Class 0:
Packet latency average = 24.1843
	minimum = 7
	maximum = 69
Network latency average = 24.1843
	minimum = 7
	maximum = 69
Slowest packet = 5773
Flit latency average = 24.347
	minimum = 7
	maximum = 69
Slowest flit = 5773
Fragmentation average = 0
	minimum = 0
	maximum = 0
Injected packet rate average = 0.00925
	minimum = 0.006 (at node 6)
	maximum = 0.0126667 (at node 4)
Accepted packet rate average = 0.009125
	minimum = 0.006 (at node 9)
	maximum = 0.0113333 (at node 1)
Injected flit rate average = 0.00925
	minimum = 0.006 (at node 6)
	maximum = 0.0126667 (at node 4)
Accepted flit rate average= 0.009125
	minimum = 0.006 (at node 9)
	maximum = 0.0113333 (at node 1)
Injected packet length average = 1
Accepted packet length average = 1
Total in-flight flits = 5 (5 measured)
latency change    = 0.00175485
throughput change = 0.0273973
Class 0:
Packet latency average = 23.7105
	minimum = 7
	maximum = 69
Network latency average = 23.7105
	minimum = 7
	maximum = 69
Slowest packet = 5773
Flit latency average = 23.8301
	minimum = 7
	maximum = 69
Slowest flit = 5773
Fragmentation average = 0
	minimum = 0
	maximum = 0
Injected packet rate average = 0.009625
	minimum = 0.0065 (at node 6)
	maximum = 0.0125 (at node 4)
Accepted packet rate average = 0.0095625
	minimum = 0.0065 (at node 9)
	maximum = 0.013 (at node 13)
Injected flit rate average = 0.009625
	minimum = 0.0065 (at node 6)
	maximum = 0.0125 (at node 4)
Accepted flit rate average= 0.0095625
	minimum = 0.0065 (at node 9)
	maximum = 0.013 (at node 13)
Injected packet length average = 1
Accepted packet length average = 1
Total in-flight flits = 4 (4 measured)
latency change    = 0.0199829
throughput change = 0.0457516
Class 0:
Packet latency average = 23.4042
	minimum = 7
	maximum = 69
Network latency average = 23.4042
	minimum = 7
	maximum = 69
Slowest packet = 5773
Flit latency average = 23.5013
	minimum = 7
	maximum = 69
Slowest flit = 5773
Fragmentation average = 0
	minimum = 0
	maximum = 0
Injected packet rate average = 0.0096
	minimum = 0.0068 (at node 6)
	maximum = 0.0128 (at node 7)
Accepted packet rate average = 0.009575
	minimum = 0.0064 (at node 9)
	maximum = 0.0128 (at node 13)
Injected flit rate average = 0.0096
	minimum = 0.0068 (at node 6)
	maximum = 0.0128 (at node 7)
Accepted flit rate average= 0.009575
	minimum = 0.0064 (at node 9)
	maximum = 0.0128 (at node 13)
Injected packet length average = 1
Accepted packet length average = 1
Total in-flight flits = 3 (3 measured)
latency change    = 0.0130885
throughput change = 0.00130548
Draining all recorded packets ...
Draining remaining packets ...
Time taken is 4015 cycles
Class 0:
Packet latency average = 23.4706
	minimum = 7
	maximum = 65
Network latency average = 23.4706
	minimum = 7
	maximum = 65
Slowest packet = 6084
Flit latency average = 23.4706
	minimum = 7
	maximum = 65
Slowest flit = 6084
Fragmentation average = 0
	minimum = 0
	maximum = 0
Injected packet rate average = 0.008625
	minimum = 0.002 (at node 1)
	maximum = 0.018 (at node 10)
Accepted packet rate average = 0.0085
	minimum = 0.002 (at node 4)
	maximum = 0.018 (at node 10)
Injected flit rate average = 0.008625
	minimum = 0.002 (at node 1)
	maximum = 0.018 (at node 10)
Accepted flit rate average= 0.0085
	minimum = 0.002 (at node 4)
	maximum = 0.018 (at node 10)
Injected packet length average = 1
Accepted packet length average = 1
Total in-flight flits = 1 (0 measured)
latency change    = 1
throughput change = 1
Class 0:
Packet latency average = 23.2086
	minimum = 7
	maximum = 65
Network latency average = 23.2086
	minimum = 7
	maximum = 65
Slowest packet = 6084
Flit latency average = 23.2086
	minimum = 7
	maximum = 65
Slowest flit = 6084
Fragmentation average = 0
	minimum = 0
	maximum = 0
Injected packet rate average = 0.008875
	minimum = 0.004 (at node 1)
	maximum = 0.012 (at node 0)
Accepted packet rate average = 0.0086875
	minimum = 0.004 (at node 4)
	maximum = 0.012 (at node 0)
Injected flit rate average = 0.008875
	minimum = 0.004 (at node 1)
	maximum = 0.012 (at node 0)
Accepted flit rate average= 0.0086875
	minimum = 0.004 (at node 4)
	maximum = 0.012 (at node 0)
Injected packet length average = 1
Accepted packet length average = 1
Total in-flight flits = 3 (0 measured)
latency change    = 0.011287
throughput change = 0.0215827
Class 0:
Packet latency average = 25.8088
	minimum = 7
	maximum = 64
Network latency average = 25.8088
	minimum = 7
	maximum = 64
Slowest packet = 6225
Flit latency average = 25.8088
	minimum = 7
	maximum = 64
Slowest flit = 6225
Fragmentation average = 0
	minimum = 0
	maximum = 0
Injected packet rate average = 0.009125
	minimum = 0 (at node 15)
	maximum = 0.016 (at node 0)
Accepted packet rate average = 0.0085
	minimum = 0 (at node 15)
	maximum = 0.016 (at node 0)
Injected flit rate average = 0.009125
	minimum = 0 (at node 15)
	maximum = 0.016 (at node 0)
Accepted flit rate average= 0.0085
	minimum = 0 (at node 15)
	maximum = 0.016 (at node 0)
Injected packet length average = 1
Accepted packet length average = 1
Total in-flight flits = 8 (0 measured)
latency change    = 0.100748
throughput change = 0.0220588
Warmed up ...Time used is 1500 cycles
Class 0:
Packet latency average = 21.3736
	minimum = 7
	maximum = 64
Network latency average = 21.3736
	minimum = 7
	maximum = 64
Slowest packet = 6285
Flit latency average = 23.8687
	minimum = 7
	maximum = 78
Slowest flit = 6272
Fragmentation average = 0
	minimum = 0
	maximum = 0
Injected packet rate average = 0.011625
	minimum = 0.002 (at node 14)
	maximum = 0.02 (at node 1)
Accepted packet rate average = 0.012375
	minimum = 0.002 (at node 11)
	maximum = 0.02 (at node 4)
Injected flit rate average = 0.011625
	minimum = 0.002 (at node 14)
	maximum = 0.02 (at node 1)
Accepted flit rate average= 0.012375
	minimum = 0.002 (at node 11)
	maximum = 0.02 (at node 4)
Injected packet length average = 1
Accepted packet length average = 1
Total in-flight flits = 2 (2 measured)
latency change    = 0.207508
throughput change = 0.313131
Class 0:
Packet latency average = 23.1006
	minimum = 7
	maximum = 66
Network latency average = 23.1006
	minimum = 7
	maximum = 66
Slowest packet = 6380
Flit latency average = 24.497
	minimum = 7
	maximum = 78
Slowest flit = 6272
Fragmentation average = 0
	minimum = 0
	maximum = 0
Injected packet rate average = 0.01
	minimum = 0.002 (at node 13)
	maximum = 0.016 (at node 12)
Accepted packet rate average = 0.0104375
	minimum = 0.004 (at node 7)
	maximum = 0.017 (at node 3)
Injected flit rate average = 0.01
	minimum = 0.002 (at node 13)
	maximum = 0.016 (at node 12)
Accepted flit rate average= 0.0104375
	minimum = 0.004 (at node 7)
	maximum = 0.017 (at node 3)
Injected packet length average = 1
Accepted packet length average = 1
Total in-flight flits = 1 (1 measured)
latency change    = 0.07476
throughput change = 0.185629
Class 0:
Packet latency average = 23.8122
	minimum = 7
	maximum = 66
Network latency average = 23.8122
	minimum = 7
	maximum = 66
Slowest packet = 6380
Flit latency average = 24.7722
	minimum = 7
	maximum = 78
Slowest flit = 6272
Fragmentation average = 0
	minimum = 0
	maximum = 0
Injected packet rate average = 0.00983333
	minimum = 0.006 (at node 14)
	maximum = 0.0126667 (at node 1)
Accepted packet rate average = 0.009875
	minimum = 0.00533333 (at node 11)
	maximum = 0.0133333 (at node 3)
Injected flit rate average = 0.00983333
	minimum = 0.006 (at node 14)
	maximum = 0.0126667 (at node 1)
Accepted flit rate average= 0.009875
	minimum = 0.00533333 (at node 11)
	maximum = 0.0133333 (at node 3)
Injected packet length average = 1
Accepted packet length average = 1
Total in-flight flits = 7 (7 measured)
latency change    = 0.0298837
throughput change = 0.056962
Class 0:
Packet latency average = 23.8203
	minimum = 7
	maximum = 66
Network latency average = 23.8203
	minimum = 7
	maximum = 66
Slowest packet = 6380
Flit latency average = 24.5446
	minimum = 7
	maximum = 78
Slowest flit = 6272
Fragmentation average = 0
	minimum = 0
	maximum = 0
Injected packet rate average = 0.00975
	minimum = 0.0065 (at node 13)
	maximum = 0.0125 (at node 10)
Accepted packet rate average = 0.0098125
	minimum = 0.007 (at node 11)
	maximum = 0.0125 (at node 2)
Injected flit rate average = 0.00975
	minimum = 0.0065 (at node 13)
	maximum = 0.0125 (at node 10)
Accepted flit rate average= 0.0098125
	minimum = 0.007 (at node 11)
	maximum = 0.0125 (at node 2)
Injected packet length average = 1
Accepted packet length average = 1
Total in-flight flits = 6 (6 measured)
latency change    = 0.000337291
throughput change = 0.00636943
Class 0:
Packet latency average = 23.4646
	minimum = 7
	maximum = 67
Network latency average = 23.4646
	minimum = 7
	maximum = 67
Slowest packet = 6626
Flit latency average = 24.0566
	minimum = 7
	maximum = 78
Slowest flit = 6272
Fragmentation average = 0
	minimum = 0
	maximum = 0
Injected packet rate average = 0.00965
	minimum = 0.0064 (at node 13)
	maximum = 0.012 (at node 8)
Accepted packet rate average = 0.009725
	minimum = 0.0072 (at node 5)
	maximum = 0.0128 (at node 2)
Injected flit rate average = 0.00965
	minimum = 0.0064 (at node 13)
	maximum = 0.012 (at node 8)
Accepted flit rate average= 0.009725
	minimum = 0.0072 (at node 5)
	maximum = 0.0128 (at node 2)
Injected packet length average = 1
Accepted packet length average = 1
Total in-flight flits = 5 (5 measured)
latency change    = 0.0151588
throughput change = 0.00899743
Class 0:
Packet latency average = 23.7292
	minimum = 7
	maximum = 67
Network latency average = 23.7292
	minimum = 7
	maximum = 67
Slowest packet = 6626
Flit latency average = 24.2075
	minimum = 7
	maximum = 78
Slowest flit = 6272
Fragmentation average = 0
	minimum = 0
	maximum = 0
Injected packet rate average = 0.00991667
	minimum = 0.007 (at node 13)
	maximum = 0.0126667 (at node 10)
Accepted packet rate average = 0.0099375
	minimum = 0.00766667 (at node 7)
	maximum = 0.0123333 (at node 2)
Injected flit rate average = 0.00991667
	minimum = 0.007 (at node 13)
	maximum = 0.0126667 (at node 10)
Accepted flit rate average= 0.0099375
	minimum = 0.00766667 (at node 7)
	maximum = 0.0123333 (at node 2)
Injected packet length average = 1
Accepted packet length average = 1
Total in-flight flits = 7 (7 measured)
latency change    = 0.0111527
throughput change = 0.0213836
Draining all recorded packets ...
Draining remaining packets ...
Time taken is 4558 cycles
Class 0:
Packet latency average = 23.0149
	minimum = 7
	maximum = 62
Network latency average = 23.0149
	minimum = 7
	maximum = 62
Slowest packet = 6762
Flit latency average = 23.0149
	minimum = 7
	maximum = 62
Slowest flit = 6762
Fragmentation average = 0
	minimum = 0
	maximum = 0
Injected packet rate average = 0.009
	minimum = 0.004 (at node 10)
	maximum = 0.018 (at node 4)
Accepted packet rate average = 0.008375
	minimum = 0.004 (at node 10)
	maximum = 0.018 (at node 1)
Injected flit rate average = 0.009
	minimum = 0.004 (at node 10)
	maximum = 0.018 (at node 4)
Accepted flit rate average= 0.008375
	minimum = 0.004 (at node 10)
	maximum = 0.018 (at node 1)
Injected packet length average = 1
Accepted packet length average = 1
Total in-flight flits = 5 (0 measured)
latency change    = 1
throughput change = 1
Class 0:
Packet latency average = 22.3262
	minimum = 7
	maximum = 62
Network latency average = 22.3262
	minimum = 7
	maximum = 62
Slowest packet = 6762
Flit latency average = 22.3262
	minimum = 7
	maximum = 62
Slowest flit = 6762
Fragmentation average = 0
	minimum = 0
	maximum = 0
Injected packet rate average = 0.0091875
	minimum = 0.005 (at node 15)
	maximum = 0.015 (at node 4)
Accepted packet rate average = 0.0088125
	minimum = 0.004 (at node 13)
	maximum = 0.014 (at node 1)
Injected flit rate average = 0.0091875
	minimum = 0.005 (at node 15)
	maximum = 0.015 (at node 4)
Accepted flit rate average= 0.0088125
	minimum = 0.004 (at node 13)
	maximum = 0.014 (at node 1)
Injected packet length average = 1
Accepted packet length average = 1
Total in-flight flits = 6 (0 measured)
latency change    = 0.0308464
throughput change = 0.0496454
Class 0:
Packet latency average = 25.6966
	minimum = 7
	maximum = 75
Network latency average = 25.6966
	minimum = 7
	maximum = 75
Slowest packet = 6916
Flit latency average = 25.6966
	minimum = 7
	maximum = 75
Slowest flit = 6916
Fragmentation average = 0
	minimum = 0
	maximum = 0
Injected packet rate average = 0.010875
	minimum = 0.004 (at node 1)
	maximum = 0.024 (at node 4)
Accepted packet rate average = 0.011125
	minimum = 0.004 (at node 2)
	maximum = 0.024 (at node 1)
Injected flit rate average = 0.010875
	minimum = 0.004 (at node 1)
	maximum = 0.024 (at node 4)
Accepted flit rate average= 0.011125
	minimum = 0.004 (at node 2)
	maximum = 0.024 (at node 1)
Injected packet length average = 1
Accepted packet length average = 1
Total in-flight flits = 4 (0 measured)
latency change    = 0.131161
throughput change = 0.207865
Warmed up ...Time used is 1500 cycles
Class 0:
Packet latency average = 25.0127
	minimum = 7
	maximum = 80
Network latency average = 25.0127
	minimum = 7
	maximum = 80
Slowest packet = 7049
Flit latency average = 25.3012
	minimum = 7
	maximum = 80
Slowest flit = 7049
Fragmentation average = 0
	minimum = 0
	maximum = 0
Injected packet rate average = 0.010375
	minimum = 0.004 (at node 13)
	maximum = 0.016 (at node 8)
Accepted packet rate average = 0.010375
	minimum = 0.006 (at node 6)
	maximum = 0.014 (at node 2)
Injected flit rate average = 0.010375
	minimum = 0.004 (at node 13)
	maximum = 0.016 (at node 8)
Accepted flit rate average= 0.010375
	minimum = 0.006 (at node 6)
	maximum = 0.014 (at node 2)
Injected packet length average = 1
Accepted packet length average = 1
Total in-flight flits = 4 (4 measured)
latency change    = 0.027345
throughput change = 0.0722892
Class 0:
Packet latency average = 24.8973
	minimum = 7
	maximum = 80
Network latency average = 24.8973
	minimum = 7
	maximum = 80
Slowest packet = 7049
Flit latency average = 25.06
	minimum = 7
	maximum = 80
Slowest flit = 7049
Fragmentation average = 0
	minimum = 0
	maximum = 0
Injected packet rate average = 0.0095
	minimum = 0.007 (at node 13)
	maximum = 0.015 (at node 8)
Accepted packet rate average = 0.009375
	minimum = 0.007 (at node 14)
	maximum = 0.015 (at node 2)
Injected flit rate average = 0.0095
	minimum = 0.007 (at node 13)
	maximum = 0.015 (at node 8)
Accepted flit rate average= 0.009375
	minimum = 0.007 (at node 14)
	maximum = 0.015 (at node 2)
Injected packet length average = 1
Accepted packet length average = 1
Total in-flight flits = 6 (6 measured)
latency change    = 0.00463497
throughput change = 0.106667
Class 0:
Packet latency average = 24.5021
	minimum = 7
	maximum = 80
Network latency average = 24.5021
	minimum = 7
	maximum = 80
Slowest packet = 7049
Flit latency average = 24.6109
	minimum = 7
	maximum = 80
Slowest flit = 7049
Fragmentation average = 0
	minimum = 0
	maximum = 0
Injected packet rate average = 0.010125
	minimum = 0.00733333 (at node 6)
	maximum = 0.0126667 (at node 1)
Accepted packet rate average = 0.00995833
	minimum = 0.00666667 (at node 9)
	maximum = 0.0126667 (at node 2)
Injected flit rate average = 0.010125
	minimum = 0.00733333 (at node 6)
	maximum = 0.0126667 (at node 1)
Accepted flit rate average= 0.00995833
	minimum = 0.00666667 (at node 9)
	maximum = 0.0126667 (at node 2)
Injected packet length average = 1
Accepted packet length average = 1
Total in-flight flits = 8 (8 measured)
latency change    = 0.0161265
throughput change = 0.0585774
Class 0:
Packet latency average = 24.3968
	minimum = 7
	maximum = 80
Network latency average = 24.3968
	minimum = 7
	maximum = 80
Slowest packet = 7049
Flit latency average = 24.4796
	minimum = 7
	maximum = 80
Slowest flit = 7049
Fragmentation average = 0
	minimum = 0
	maximum = 0
Injected packet rate average = 0.00996875
	minimum = 0.007 (at node 6)
	maximum = 0.014 (at node 1)
Accepted packet rate average = 0.00996875
	minimum = 0.007 (at node 9)
	maximum = 0.014 (at node 4)
Injected flit rate average = 0.00996875
	minimum = 0.007 (at node 6)
	maximum = 0.014 (at node 1)
Accepted flit rate average= 0.00996875
	minimum = 0.007 (at node 9)
	maximum = 0.014 (at node 4)
Injected packet length average = 1
Accepted packet length average = 1
Total in-flight flits = 4 (4 measured)
latency change    = 0.00431623
throughput change = 0.00104493
Class 0:
Packet latency average = 24.3316
	minimum = 7
	maximum = 80
Network latency average = 24.3316
	minimum = 7
	maximum = 80
Slowest packet = 7049
Flit latency average = 24.399
	minimum = 7
	maximum = 80
Slowest flit = 7049
Fragmentation average = 0
	minimum = 0
	maximum = 0
Injected packet rate average = 0.009925
	minimum = 0.008 (at node 10)
	maximum = 0.0136 (at node 1)
Accepted packet rate average = 0.0099
	minimum = 0.008 (at node 9)
	maximum = 0.0132 (at node 4)
Injected flit rate average = 0.009925
	minimum = 0.008 (at node 10)
	maximum = 0.0136 (at node 1)
Accepted flit rate average= 0.0099
	minimum = 0.008 (at node 9)
	maximum = 0.0132 (at node 4)
Injected packet length average = 1
Accepted packet length average = 1
Total in-flight flits = 5 (5 measured)
latency change    = 0.00267934
throughput change = 0.00694444
Class 0:
Packet latency average = 24.3216
	minimum = 7
	maximum = 80
Network latency average = 24.3216
	minimum = 7
	maximum = 80
Slowest packet = 7049
Flit latency average = 24.3765
	minimum = 7
	maximum = 80
Slowest flit = 7049
Fragmentation average = 0
	minimum = 0
	maximum = 0
Injected packet rate average = 0.0101042
	minimum = 0.00833333 (at node 9)
	maximum = 0.013 (at node 1)
Accepted packet rate average = 0.010125
	minimum = 0.00833333 (at node 6)
	maximum = 0.013 (at node 4)
[...]
	minimum = 7
	maximum = 65
Slowest packet = 32637
Flit latency average = 24.9036
	minimum = 7
	maximum = 72
Slowest flit = 32567
Fragmentation average = 0
	minimum = 0
	maximum = 0
Injected packet rate average = 0.009875
	minimum = 0.002 (at node 12)
	maximum = 0.014 (at node 6)
Accepted packet rate average = 0.010375
	minimum = 0.004 (at node 3)
	maximum = 0.016 (at node 7)
Injected flit rate average = 0.009875
	minimum = 0.002 (at node 12)
	maximum = 0.014 (at node 6)
Accepted flit rate average= 0.010375
	minimum = 0.004 (at node 3)
	maximum = 0.016 (at node 7)
Injected packet length average = 1
Accepted packet length average = 1
Total in-flight flits = 1 (1 measured)
latency change    = 0.129412
throughput change = 0.0240964
Class 0:
Packet latency average = 24.3397
	minimum = 7
	maximum = 65
Network latency average = 24.3397
	minimum = 7
	maximum = 65
Slowest packet = 32637
Flit latency average = 25.118
	minimum = 7
	maximum = 72
Slowest flit = 32567
Fragmentation average = 0
	minimum = 0
	maximum = 0
Injected packet rate average = 0.0099375
	minimum = 0.005 (at node 12)
	maximum = 0.014 (at node 4)
Accepted packet rate average = 0.0100625
	minimum = 0.006 (at node 3)
	maximum = 0.015 (at node 7)
Injected flit rate average = 0.0099375
	minimum = 0.005 (at node 12)
	maximum = 0.014 (at node 4)
Accepted flit rate average= 0.0100625
	minimum = 0.006 (at node 3)
	maximum = 0.015 (at node 7)
Injected packet length average = 1
Accepted packet length average = 1
Total in-flight flits = 3 (3 measured)
latency change    = 0.0413484
throughput change = 0.0310559
Class 0:
Packet latency average = 24.1617
	minimum = 7
	maximum = 65
Network latency average = 24.1617
	minimum = 7
	maximum = 65
Slowest packet = 32637
Flit latency average = 24.6875
	minimum = 7
	maximum = 72
Slowest flit = 32567
Fragmentation average = 0
	minimum = 0
	maximum = 0
Injected packet rate average = 0.009875
	minimum = 0.006 (at node 12)
	maximum = 0.0153333 (at node 13)
Accepted packet rate average = 0.01
	minimum = 0.00666667 (at node 3)
	maximum = 0.0153333 (at node 7)
Injected flit rate average = 0.009875
	minimum = 0.006 (at node 12)
	maximum = 0.0153333 (at node 13)
Accepted flit rate average= 0.01
	minimum = 0.00666667 (at node 3)
	maximum = 0.0153333 (at node 7)
Injected packet length average = 1
Accepted packet length average = 1
Total in-flight flits = 2 (2 measured)
latency change    = 0.00736875
throughput change = 0.00625
Class 0:
Packet latency average = 23.4909
	minimum = 7
	maximum = 65
Network latency average = 23.4909
	minimum = 7
	maximum = 65
Slowest packet = 32637
Flit latency average = 23.8776
	minimum = 7
	maximum = 72
Slowest flit = 32567
Fragmentation average = 0
	minimum = 0
	maximum = 0
Injected packet rate average = 0.0105313
	minimum = 0.0065 (at node 9)
	maximum = 0.0145 (at node 11)
Accepted packet rate average = 0.0104688
	minimum = 0.0065 (at node 6)
	maximum = 0.0145 (at node 14)
Injected flit rate average = 0.0105313
	minimum = 0.0065 (at node 9)
	maximum = 0.0145 (at node 11)
Accepted flit rate average= 0.0104688
	minimum = 0.0065 (at node 6)
	maximum = 0.0145 (at node 14)
Injected packet length average = 1
Accepted packet length average = 1
Total in-flight flits = 7 (7 measured)
latency change    = 0.0285554
throughput change = 0.0447761
Draining all recorded packets ...
Draining remaining packets ...
Time taken is 3591 cycles
Class 0:
Packet latency average = 24.4789
	minimum = 7
	maximum = 65
Network latency average = 24.4789
	minimum = 7
	maximum = 65
Slowest packet = 32945
Flit latency average = 24.4789
	minimum = 7
	maximum = 65
Slowest flit = 32945
Fragmentation average = 0
	minimum = 0
	maximum = 0
Injected packet rate average = 0.009375
	minimum = 0.004 (at node 2)
	maximum = 0.018 (at node 3)
Accepted packet rate average = 0.008875
	minimum = 0.004 (at node 5)
	maximum = 0.016 (at node 1)
Injected flit rate average = 0.009375
	minimum = 0.004 (at node 2)
	maximum = 0.018 (at node 3)
Accepted flit rate average= 0.008875
	minimum = 0.004 (at node 5)
	maximum = 0.016 (at node 1)
Injected packet length average = 1
Accepted packet length average = 1
Total in-flight flits = 4 (0 measured)
latency change    = 1
throughput change = 1
Class 0:
Packet latency average = 24
	minimum = 7
	maximum = 77
Network latency average = 24
	minimum = 7
	maximum = 77
Slowest packet = 33028
Flit latency average = 24
	minimum = 7
	maximum = 77
Slowest flit = 33028
Fragmentation average = 0
	minimum = 0
	maximum = 0
Injected packet rate average = 0.0101875
	minimum = 0.005 (at node 8)
	maximum = 0.014 (at node 4)
Accepted packet rate average = 0.01
	minimum = 0.005 (at node 2)
	maximum = 0.014 (at node 9)
Injected flit rate average = 0.0101875
	minimum = 0.005 (at node 8)
	maximum = 0.014 (at node 4)
Accepted flit rate average= 0.01
	minimum = 0.005 (at node 2)
	maximum = 0.014 (at node 9)
Injected packet length average = 1
Accepted packet length average = 1
Total in-flight flits = 3 (0 measured)
latency change    = 0.0199531
throughput change = 0.1125
Class 0:
Packet latency average = 25.1795
	minimum = 7
	maximum = 69
Network latency average = 25.1795
	minimum = 7
	maximum = 69
Slowest packet = 33146
Flit latency average = 25.1795
	minimum = 7
	maximum = 69
Slowest flit = 33146
Fragmentation average = 0
	minimum = 0
	maximum = 0
Injected packet rate average = 0.009875
	minimum = 0.002 (at node 4)
	maximum = 0.02 (at node 12)
Accepted packet rate average = 0.00975
	minimum = 0.004 (at node 2)
	maximum = 0.016 (at node 3)
Injected flit rate average = 0.009875
	minimum = 0.002 (at node 4)
	maximum = 0.02 (at node 12)
Accepted flit rate average= 0.00975
	minimum = 0.004 (at node 2)
	maximum = 0.016 (at node 3)
Injected packet length average = 1
Accepted packet length average = 1
Total in-flight flits = 4 (0 measured)
latency change    = 0.0468432
throughput change = 0.025641
Warmed up ...Time used is 1500 cycles
Class 0:
Packet latency average = 23.3614
	minimum = 7
	maximum = 74
Network latency average = 23.3614
	minimum = 7
	maximum = 74
Slowest packet = 33184
Flit latency average = 24.1034
	minimum = 7
	maximum = 74
Slowest flit = 33184
Fragmentation average = 0
	minimum = 0
	maximum = 0
Injected packet rate average = 0.010625
	minimum = 0.004 (at node 3)
	maximum = 0.02 (at node 14)
Accepted packet rate average = 0.010875
	minimum = 0.004 (at node 7)
	maximum = 0.02 (at node 11)
Injected flit rate average = 0.010625
	minimum = 0.004 (at node 3)
	maximum = 0.02 (at node 14)
Accepted flit rate average= 0.010875
	minimum = 0.004 (at node 7)
	maximum = 0.02 (at node 11)
Injected packet length average = 1
Accepted packet length average = 1
Total in-flight flits = 2 (2 measured)
latency change    = 0.0778223
throughput change = 0.103448
Class 0:
Packet latency average = 23.0516
	minimum = 7
	maximum = 74
Network latency average = 23.0516
	minimum = 7
	maximum = 74
Slowest packet = 33184
Flit latency average = 23.4654
	minimum = 7
	maximum = 74
Slowest flit = 33184
Fragmentation average = 0
	minimum = 0
	maximum = 0
Injected packet rate average = 0.0098125
	minimum = 0.005 (at node 0)
	maximum = 0.019 (at node 6)
Accepted packet rate average = 0.0099375
	minimum = 0.005 (at node 0)
	maximum = 0.019 (at node 9)
Injected flit rate average = 0.0098125
	minimum = 0.005 (at node 0)
	maximum = 0.019 (at node 6)
Accepted flit rate average= 0.0099375
	minimum = 0.005 (at node 0)
	maximum = 0.019 (at node 9)
Injected packet length average = 1
Accepted packet length average = 1
Total in-flight flits = 2 (2 measured)
latency change    = 0.0134408
throughput change = 0.0943396
Class 0:
Packet latency average = 23.6485
	minimum = 7
	maximum = 74
Network latency average = 23.6485
	minimum = 7
	maximum = 74
Slowest packet = 33184
Flit latency average = 23.9095
	minimum = 7
	maximum = 74
Slowest flit = 33184
Fragmentation average = 0
	minimum = 0
	maximum = 0
Injected packet rate average = 0.0102917
	minimum = 0.00666667 (at node 15)
	maximum = 0.0153333 (at node 6)
Accepted packet rate average = 0.010125
	minimum = 0.00666667 (at node 15)
	maximum = 0.0153333 (at node 9)
Injected flit rate average = 0.0102917
	minimum = 0.00666667 (at node 15)
	maximum = 0.0153333 (at node 6)
Accepted flit rate average= 0.010125
	minimum = 0.00666667 (at node 15)
	maximum = 0.0153333 (at node 9)
Injected packet length average = 1
Accepted packet length average = 1
Total in-flight flits = 8 (8 measured)
latency change    = 0.0252414
throughput change = 0.0185185
Class 0:
Packet latency average = 25.0742
	minimum = 7
	maximum = 74
Network latency average = 25.0742
	minimum = 7
	maximum = 74
Slowest packet = 33184
Flit latency average = 25.2434
	minimum = 7
	maximum = 74
Slowest flit = 33184
Fragmentation average = 0
	minimum = 0
	maximum = 0
Injected packet rate average = 0.010625
	minimum = 0.006 (at node 15)
	maximum = 0.0145 (at node 14)
Accepted packet rate average = 0.0106563
	minimum = 0.006 (at node 15)
	maximum = 0.0145 (at node 11)
Injected flit rate average = 0.010625
	minimum = 0.006 (at node 15)
	maximum = 0.0145 (at node 14)
Accepted flit rate average= 0.0106563
	minimum = 0.006 (at node 15)
	maximum = 0.0145 (at node 11)
Injected packet length average = 1
Accepted packet length average = 1
Total in-flight flits = 3 (3 measured)
latency change    = 0.0568572
throughput change = 0.0498534
Class 0:
Packet latency average = 24.7885
	minimum = 7
	maximum = 74
Network latency average = 24.7885
	minimum = 7
	maximum = 74
Slowest packet = 33184
Flit latency average = 24.9286
	minimum = 7
	maximum = 74
Slowest flit = 33184
Fragmentation average = 0
	minimum = 0
	maximum = 0
Injected packet rate average = 0.0105
	minimum = 0.0076 (at node 5)
	maximum = 0.0148 (at node 14)
Accepted packet rate average = 0.0105
	minimum = 0.0076 (at node 5)
	maximum = 0.0148 (at node 11)
Injected flit rate average = 0.0105
	minimum = 0.0076 (at node 5)
	maximum = 0.0148 (at node 14)
Accepted flit rate average= 0.0105
	minimum = 0.0076 (at node 5)
	maximum = 0.0148 (at node 11)
Injected packet length average = 1
Accepted packet length average = 1
Total in-flight flits = 4 (4 measured)
latency change    = 0.0115264
throughput change = 0.014881
Class 0:
Packet latency average = 24.8506
	minimum = 7
	maximum = 74
Network latency average = 24.8506
	minimum = 7
	maximum = 74
Slowest packet = 33184
Flit latency average = 24.9712
	minimum = 7
	maximum = 74
Slowest flit = 33184
Fragmentation average = 0
	minimum = 0
	maximum = 0
Injected packet rate average = 0.010125
	minimum = 0.008 (at node 15)
	maximum = 0.0136667 (at node 14)
Accepted packet rate average = 0.010125
	minimum = 0.008 (at node 15)
	maximum = 0.0136667 (at node 11)
Injected flit rate average = 0.010125
	minimum = 0.008 (at node 15)
	maximum = 0.0136667 (at node 14)
Accepted flit rate average= 0.010125
	minimum = 0.008 (at node 15)
	maximum = 0.0136667 (at node 11)
Injected packet length average = 1
Accepted packet length average = 1
Total in-flight flits = 4 (4 measured)
latency change    = 0.00250138
throughput change = 0.037037
Class 0:
Packet latency average = 24.7509
	minimum = 7
	maximum = 74
Network latency average = 24.7509
	minimum = 7
	maximum = 74
Slowest packet = 33184
Flit latency average = 24.8529
	minimum = 7
	maximum = 74
Slowest flit = 33184
Fragmentation average = 0
	minimum = 0
	maximum = 0
Injected packet rate average = 0.0102857
	minimum = 0.00885714 (at node 0)
	maximum = 0.0131429 (at node 14)
Accepted packet rate average = 0.0103214
	minimum = 0.00885714 (at node 0)
	maximum = 0.0131429 (at node 11)
Injected flit rate average = 0.0102857
	minimum = 0.00885714 (at node 0)
	maximum = 0.0131429 (at node 14)
Accepted flit rate average= 0.0103214
	minimum = 0.00885714 (at node 0)
	maximum = 0.0131429 (at node 11)
Injected packet length average = 1
Accepted packet length average = 1
Total in-flight flits = 2 (2 measured)
latency change    = 0.00403021
throughput change = 0.0190311
Draining all recorded packets ...
Draining remaining packets ...
Time taken is 5021 cycles
Class 0:
Packet latency average = 25.75
	minimum = 7
	maximum = 67
Network latency average = 25.75
	minimum = 7
	maximum = 67
Slowest packet = 33785
Flit latency average = 25.75
	minimum = 7
	maximum = 67
Slowest flit = 33785
Fragmentation average = 0
	minimum = 0
	maximum = 0
Injected packet rate average = 0.011125
	minimum = 0.004 (at node 2)
	maximum = 0.02 (at node 8)
Accepted packet rate average = 0.01
	minimum = 0.004 (at node 6)
	maximum = 0.02 (at node 2)
Injected flit rate average = 0.011125
	minimum = 0.004 (at node 2)
	maximum = 0.02 (at node 8)
Accepted flit rate average= 0.01
	minimum = 0.004 (at node 6)
	maximum = 0.02 (at node 2)
Injected packet length average = 1
Accepted packet length average = 1
Total in-flight flits = 9 (0 measured)
latency change    = 1
throughput change = 1
Class 0:
Packet latency average = 25.3543
	minimum = 7
	maximum = 67
Network latency average = 25.3543
	minimum = 7
	maximum = 67
Slowest packet = 33785
Flit latency average = 25.3543
	minimum = 7
	maximum = 67
Slowest flit = 33785
Fragmentation average = 0
	minimum = 0
	maximum = 0
Injected packet rate average = 0.011125
	minimum = 0.007 (at node 4)
	maximum = 0.017 (at node 8)
Accepted packet rate average = 0.0109375
	minimum = 0.007 (at node 1)
	maximum = 0.017 (at node 2)
Injected flit rate average = 0.011125
	minimum = 0.007 (at node 4)
	maximum = 0.017 (at node 8)
Accepted flit rate average= 0.0109375
	minimum = 0.007 (at node 1)
	maximum = 0.017 (at node 2)
Injected packet length average = 1
Accepted packet length average = 1
Total in-flight flits = 3 (0 measured)
latency change    = 0.0156074
throughput change = 0.0857143
Class 0:
Packet latency average = 25.4744
	minimum = 7
	maximum = 71
Network latency average = 25.4744
	minimum = 7
	maximum = 71
Slowest packet = 33945
Flit latency average = 25.4744
	minimum = 7
	maximum = 71
Slowest flit = 33945
Fragmentation average = 0
	minimum = 0
	maximum = 0
Injected packet rate average = 0.009625
	minimum = 0.004 (at node 5)
	maximum = 0.018 (at node 0)
Accepted packet rate average = 0.00975
	minimum = 0.004 (at node 5)
	maximum = 0.018 (at node 0)
Injected flit rate average = 0.009625
	minimum = 0.004 (at node 5)
	maximum = 0.018 (at node 0)
Accepted flit rate average= 0.00975
	minimum = 0.004 (at node 5)
	maximum = 0.018 (at node 0)
Injected packet length average = 1
Accepted packet length average = 1
Total in-flight flits = 2 (0 measured)
latency change    = 0.00471349
throughput change = 0.121795
Warmed up ...Time used is 1500 cycles
Class 0:
Packet latency average = 23.978
	minimum = 7
	maximum = 57
Network latency average = 23.978
	minimum = 7
	maximum = 57
Slowest packet = 34007
Flit latency average = 23.9355
	minimum = 7
	maximum = 57
Slowest flit = 34007
Fragmentation average = 0
	minimum = 0
	maximum = 0
Injected packet rate average = 0.01175
	minimum = 0.002 (at node 0)
	maximum = 0.016 (at node 2)
Accepted packet rate average = 0.011625
	minimum = 0.002 (at node 0)
	maximum = 0.016 (at node 6)
Injected flit rate average = 0.01175
	minimum = 0.002 (at node 0)
	maximum = 0.016 (at node 2)
Accepted flit rate average= 0.011625
	minimum = 0.002 (at node 0)
	maximum = 0.016 (at node 6)
Injected packet length average = 1
Accepted packet length average = 1
Total in-flight flits = 3 (3 measured)
latency change    = 0.0624045
throughput change = 0.16129
Class 0:
Packet latency average = 24.3212
	minimum = 7
	maximum = 62
Network latency average = 24.3212
	minimum = 7
	maximum = 62
Slowest packet = 34101
Flit latency average = 24.2934
	minimum = 7
	maximum = 62
Slowest flit = 34101
Fragmentation average = 0
	minimum = 0
	maximum = 0
Injected packet rate average = 0.0104375
	minimum = 0.006 (at node 0)
	maximum = 0.015 (at node 2)
Accepted packet rate average = 0.0104375
	minimum = 0.006 (at node 0)
	maximum = 0.015 (at node 8)
Injected flit rate average = 0.0104375
	minimum = 0.006 (at node 0)
	maximum = 0.015 (at node 2)
Accepted flit rate average= 0.0104375
	minimum = 0.006 (at node 0)
	maximum = 0.015 (at node 8)
Injected packet length average = 1
Accepted packet length average = 1
Total in-flight flits = 2 (2 measured)
latency change    = 0.0141107
throughput change = 0.113772
Class 0:
Packet latency average = 23.9072
	minimum = 7
	maximum = 73
Network latency average = 23.9072
	minimum = 7
	maximum = 73
Slowest packet = 34207
Flit latency average = 23.8912
	minimum = 7
	maximum = 73
Slowest flit = 34207
Fragmentation average = 0
	minimum = 0
	maximum = 0
Injected packet rate average = 0.00991667
	minimum = 0.006 (at node 12)
	maximum = 0.0133333 (at node 14)
Accepted packet rate average = 0.00995833
	minimum = 0.006 (at node 3)
	maximum = 0.0133333 (at node 11)
Injected flit rate average = 0.00991667
	minimum = 0.006 (at node 12)
	maximum = 0.0133333 (at node 14)
Accepted flit rate average= 0.00995833
	minimum = 0.006 (at node 3)
	maximum = 0.0133333 (at node 11)
Injected packet length average = 1
Accepted packet length average = 1
Total in-flight flits = 1 (1 measured)
latency change    = 0.0173186
throughput change = 0.0481172
Class 0:
Packet latency average = 24.3849
	minimum = 7
	maximum = 73
Network latency average = 24.3849
	minimum = 7
	maximum = 73
Slowest packet = 34207
Flit latency average = 24.3699
	minimum = 7
	maximum = 73
Slowest flit = 34207
Fragmentation average = 0
	minimum = 0
	maximum = 0
Injected packet rate average = 0.0100625
	minimum = 0.0075 (at node 0)
	maximum = 0.0135 (at node 15)
Accepted packet rate average = 0.00996875
	minimum = 0.0075 (at node 0)
	maximum = 0.0135 (at node 15)
Injected flit rate average = 0.0100625
	minimum = 0.0075 (at node 0)
	maximum = 0.0135 (at node 15)
Accepted flit rate average= 0.00996875
	minimum = 0.0075 (at node 0)
	maximum = 0.0135 (at node 15)
Injected packet length average = 1
Accepted packet length average = 1
Total in-flight flits = 5 (5 measured)
latency change    = 0.0195894
throughput change = 0.00104493
Class 0:
Packet latency average = 23.6439
	minimum = 7
	maximum = 73
Network latency average = 23.6439
	minimum = 7
	maximum = 73
Slowest packet = 34207
Flit latency average = 23.6357
	minimum = 7
	maximum = 73
Slowest flit = 34207
Fragmentation average = 0
	minimum = 0
	maximum = 0
Injected packet rate average = 0.00995
	minimum = 0.0068 (at node 3)
	maximum = 0.014 (at node 15)
Accepted packet rate average = 0.00995
	minimum = 0.0068 (at node 12)
	maximum = 0.014 (at node 15)
Injected flit rate average = 0.00995
	minimum = 0.0068 (at node 3)
	maximum = 0.014 (at node 15)
Accepted flit rate average= 0.00995
	minimum = 0.0068 (at node 12)
	maximum = 0.014 (at node 15)
Injected packet length average = 1
Accepted packet length average = 1
Total in-flight flits = 2 (2 measured)
latency change    = 0.0313365
throughput change = 0.00188442
Draining all recorded packets ...
Draining remaining packets ...
Time taken is 4094 cycles
====== Overall Traffic Statistics ======
====== Traffic class 0 ======
Packet latency average = 24.2986 (50 samples)
	minimum = 7 (50 samples)
	maximum = 72.78 (50 samples)
Network latency average = 24.2986 (50 samples)
	minimum = 7 (50 samples)
	maximum = 72.78 (50 samples)
Flit latency average = 24.4015 (50 samples)
	minimum = 7 (50 samples)
	maximum = 74.18 (50 samples)
Fragmentation average = 0 (50 samples)
	minimum = 0 (50 samples)
	maximum = 0 (50 samples)
Injected packet rate average = 0.00999793 (50 samples)
	minimum = 0.00689086 (50 samples)
	maximum = 0.0135092 (50 samples)
Accepted packet rate average = 0.0100097 (50 samples)
	minimum = 0.00693629 (50 samples)
	maximum = 0.0135268 (50 samples)
Injected flit rate average = 0.00999793 (50 samples)
	minimum = 0.00689086 (50 samples)
	maximum = 0.0135092 (50 samples)
Accepted flit rate average = 0.0100097 (50 samples)
	minimum = 0.00693629 (50 samples)
	maximum = 0.0135268 (50 samples)
Injected packet size average = 1 (50 samples)
Accepted packet size average = 1 (50 samples)
Hops average = 4.35946 (50 samples)
Total run time 1.25825
