BEGIN Configuration File: /tmp/tmpjafu70om.cfg
topology = mesh;
k = 4;
n = 2;
routing_function = planar_adapt;
num_vcs = 4;
vc_buf_size = 4;
wait_for_tail_credit = 1;
vc_allocator = islip;
sw_allocator = islip;
alloc_iters = 1;
credit_delay = 2;
routing_delay = 1;
vc_alloc_delay = 1;
sw_alloc_delay = 1;
input_speedup = 2;
output_speedup = 1;
internal_speedup = 1.0;
traffic = uniform;
packet_size = 1;
sim_type = latency;
injection_rate = 0.01;
warmup_periods = 3;
sample_period = 500;
sim_count = 50;
seed = 2;
link_failures = 4;
fail_seed = 303;

END Configuration File: /tmp/tmpjafu70om.cfg
failure at node 9, channel 2 (1/4)
failure at node 15, channel 3 (2/4)
failure at node 2, channel 2 (3/4)
failure at node 7, channel 3 (4/4)
Class 0:
Packet latency average = 21.7937
	minimum = 7
	maximum = 72
Network latency average = 21.7937
	minimum = 7
	maximum = 72
Slowest packet = 56
Flit latency average = 21.7937
	minimum = 7
	maximum = 72
Slowest flit = 56
Fragmentation average = 0
	minimum = 0
	maximum = 0
Injected packet rate average = 0.008125
	minimum = 0 (at node 9)
	maximum = 0.014 (at node 5)
Accepted packet rate average = 0.007875
	minimum = 0.002 (at node 5)
	maximum = 0.02 (at node 9)
Injected flit rate average = 0.008125
	minimum = 0 (at node 9)
	maximum = 0.014 (at node 5)
Accepted flit rate average= 0.007875
	minimum = 0.002 (at node 5)
	maximum = 0.02 (at node 9)
Injected packet length average = 1
Accepted packet length average = 1
Total in-flight flits = 2 (0 measured)
latency change    = 1
throughput change = 1
Class 0:
Packet latency average = 21.9237
	minimum = 7
	maximum = 72
Network latency average = 21.9237
	minimum = 7
	maximum = 72
Slowest packet = 56
Flit latency average = 21.9237
	minimum = 7
	maximum = 72
Slowest flit = 56
Fragmentation average = 0
	minimum = 0
	maximum = 0
Injected packet rate average = 0.008625
	minimum = 0.003 (at node 2)
	maximum = 0.015 (at node 13)
Accepted packet rate average = 0.0081875
	minimum = 0.004 (at node 6)
	maximum = 0.015 (at node 9)
Injected flit rate average = 0.008625
	minimum = 0.003 (at node 2)
	maximum = 0.015 (at node 13)
Accepted flit rate average= 0.0081875
	minimum = 0.004 (at node 6)
	maximum = 0.015 (at node 9)
Injected packet length average = 1
Accepted packet length average = 1
Total in-flight flits = 7 (0 measured)
latency change    = 0.00593027
throughput change = 0.0381679
Class 0:
Packet latency average = 22.7647
	minimum = 7
	maximum = 90
Network latency average = 22.7647
	minimum = 7
	maximum = 90
Slowest packet = 164
Flit latency average = 22.7647
	minimum = 7
	maximum = 90
Slowest flit = 164
Fragmentation average = 0
	minimum = 0
	maximum = 0
Injected packet rate average = 0.01
	minimum = 0.002 (at node 3)
	maximum = 0.022 (at node 13)
Accepted packet rate average = 0.010625
	minimum = 0.006 (at node 5)
	maximum = 0.016 (at node 15)
Injected flit rate average = 0.01
	minimum = 0.002 (at node 3)
	maximum = 0.022 (at node 13)
Accepted flit rate average= 0.010625
	minimum = 0.006 (at node 5)
	maximum = 0.016 (at node 15)
Injected packet length average = 1
Accepted packet length average = 1
Total in-flight flits = 2 (0 measured)
latency change    = 0.036945
throughput change = 0.229412
Warmed up ...Time used is 1500 cycles
Class 0:
Packet latency average = 20.7209
	minimum = 7
	maximum = 56
Network latency average = 20.7209
	minimum = 7
	maximum = 56
Slowest packet = 280
Flit latency average = 21.0341
	minimum = 7
	maximum = 56
Slowest flit = 280
Fragmentation average = 0
	minimum = 0
	maximum = 0
Injected packet rate average = 0.01125
	minimum = 0.004 (at node 15)
	maximum = 0.022 (at node 10)
Accepted packet rate average = 0.011
	minimum = 0.004 (at node 3)
	maximum = 0.016 (at node 4)
Injected flit rate average = 0.01125
	minimum = 0.004 (at node 15)
	maximum = 0.022 (at node 10)
Accepted flit rate average= 0.011
	minimum = 0.004 (at node 3)
	maximum = 0.016 (at node 4)
Injected packet length average = 1
Accepted packet length average = 1
Total in-flight flits = 4 (4 measured)
latency change    = 0.0986334
throughput change = 0.0340909
Class 0:
Packet latency average = 21.0909
	minimum = 7
	maximum = 62
Network latency average = 21.0909
	minimum = 7
	maximum = 62
Slowest packet = 305
Flit latency average = 21.2515
	minimum = 7
	maximum = 62
Slowest flit = 305
Fragmentation average = 0
	minimum = 0
	maximum = 0
Injected packet rate average = 0.0105
	minimum = 0.006 (at node 2)
	maximum = 0.015 (at node 3)
Accepted packet rate average = 0.0104375
	minimum = 0.004 (at node 12)
	maximum = 0.014 (at node 6)
Injected flit rate average = 0.0105
	minimum = 0.006 (at node 2)
	maximum = 0.015 (at node 3)
Accepted flit rate average= 0.0104375
	minimum = 0.004 (at node 12)
	maximum = 0.014 (at node 6)
Injected packet length average = 1
Accepted packet length average = 1
Total in-flight flits = 3 (3 measured)
latency change    = 0.0175421
throughput change = 0.0538922
Class 0:
Packet latency average = 21.9234
	minimum = 7
	maximum = 62
Network latency average = 21.9234
	minimum = 7
	maximum = 62
Slowest packet = 305
Flit latency average = 22.0295
	minimum = 7
	maximum = 62
Slowest flit = 305
Fragmentation average = 0
	minimum = 0
	maximum = 0
Injected packet rate average = 0.00983333
	minimum = 0.00666667 (at node 1)
	maximum = 0.0153333 (at node 3)
Accepted packet rate average = 0.009875
	minimum = 0.00466667 (at node 12)
	maximum = 0.0146667 (at node 1)
Injected flit rate average = 0.00983333
	minimum = 0.00666667 (at node 1)
	maximum = 0.0153333 (at node 3)
Accepted flit rate average= 0.009875
	minimum = 0.00466667 (at node 12)
	maximum = 0.0146667 (at node 1)
Injected packet length average = 1
Accepted packet length average = 1
Total in-flight flits = 1 (1 measured)
latency change    = 0.0379729
throughput change = 0.056962
Class 0:
Packet latency average = 21.5975
	minimum = 7
	maximum = 77
Network latency average = 21.5975
	minimum = 7
	maximum = 77
Slowest packet = 501
Flit latency average = 21.6769
	minimum = 7
	maximum = 77
Slowest flit = 501
Fragmentation average = 0
	minimum = 0
	maximum = 0
Injected packet rate average = 0.0101875
	minimum = 0.0065 (at node 8)
	maximum = 0.014 (at node 10)
Accepted packet rate average = 0.0101563
	minimum = 0.005 (at node 12)
	maximum = 0.015 (at node 1)
Injected flit rate average = 0.0101875
	minimum = 0.0065 (at node 8)
	maximum = 0.014 (at node 10)
Accepted flit rate average= 0.0101563
	minimum = 0.005 (at node 12)
	maximum = 0.015 (at node 1)
Injected packet length average = 1
Accepted packet length average = 1
Total in-flight flits = 3 (3 measured)
latency change    = 0.0150888
throughput change = 0.0276923
Class 0:
Packet latency average = 21.8526
	minimum = 7
	maximum = 77
Network latency average = 21.8526
	minimum = 7
	maximum = 77
Slowest packet = 501
Flit latency average = 21.9144
	minimum = 7
	maximum = 77
Slowest flit = 501
Fragmentation average = 0
	minimum = 0
	maximum = 0
Injected packet rate average = 0.010275
	minimum = 0.0076 (at node 1)
	maximum = 0.0136 (at node 12)
Accepted packet rate average = 0.010225
	minimum = 0.0056 (at node 12)
	maximum = 0.0148 (at node 1)
Injected flit rate average = 0.010275
	minimum = 0.0076 (at node 1)
	maximum = 0.0136 (at node 12)
Accepted flit rate average= 0.010225
	minimum = 0.0056 (at node 12)
	maximum = 0.0148 (at node 1)
Injected packet length average = 1
Accepted packet length average = 1
Total in-flight flits = 4 (4 measured)
latency change    = 0.0116717
throughput change = 0.00672372
Class 0:
Packet latency average = 22.0736
	minimum = 7
	maximum = 77
Network latency average = 22.0736
	minimum = 7
	maximum = 77
Slowest packet = 501
Flit latency average = 22.1242
	minimum = 7
	maximum = 77
Slowest flit = 501
Fragmentation average = 0
	minimum = 0
	maximum = 0
Injected packet rate average = 0.0103125
	minimum = 0.00766667 (at node 1)
	maximum = 0.0136667 (at node 10)
Accepted packet rate average = 0.0102292
	minimum = 0.00733333 (at node 2)
	maximum = 0.0136667 (at node 1)
Injected flit rate average = 0.0103125
	minimum = 0.00766667 (at node 1)
	maximum = 0.0136667 (at node 10)
Accepted flit rate average= 0.0102292
	minimum = 0.00733333 (at node 2)
	maximum = 0.0136667 (at node 1)
Injected packet length average = 1
Accepted packet length average = 1
Total in-flight flits = 6 (6 measured)
latency change    = 0.0100138
throughput change = 0.000407332
Draining all recorded packets ...
Draining remaining packets ...
Time taken is 4538 cycles
Class 0:
Packet latency average = 19.9706
	minimum = 7
	maximum = 47
Network latency average = 19.9706
	minimum = 7
	maximum = 47
Slowest packet = 743
Flit latency average = 19.9706
	minimum = 7
	maximum = 47
Slowest flit = 743
Fragmentation average = 0
	minimum = 0
	maximum = 0
Injected packet rate average = 0.00875
	minimum = 0.004 (at node 7)
	maximum = 0.026 (at node 5)
Accepted packet rate average = 0.0085
	minimum = 0.004 (at node 2)
	maximum = 0.014 (at node 4)
Injected flit rate average = 0.00875
	minimum = 0.004 (at node 7)
	maximum = 0.026 (at node 5)
Accepted flit rate average= 0.0085
	minimum = 0.004 (at node 2)
	maximum = 0.014 (at node 4)
Injected packet length average = 1
Accepted packet length average = 1
Total in-flight flits = 2 (0 measured)
latency change    = 1
throughput change = 1
Class 0:
Packet latency average = 21.6646
	minimum = 7
	maximum = 62
Network latency average = 21.6646
	minimum = 7
	maximum = 62
Slowest packet = 813
Flit latency average = 21.6646
	minimum = 7
	maximum = 62
Slowest flit = 813
Fragmentation average = 0
	minimum = 0
	maximum = 0
Injected packet rate average = 0.01
	minimum = 0.005 (at node 2)
	maximum = 0.018 (at node 5)
Accepted packet rate average = 0.009875
	minimum = 0.005 (at node 6)
	maximum = 0.013 (at node 13)
Injected flit rate average = 0.01
	minimum = 0.005 (at node 2)
	maximum = 0.018 (at node 5)
Accepted flit rate average= 0.009875
	minimum = 0.005 (at node 6)
	maximum = 0.013 (at node 13)
Injected packet length average = 1
Accepted packet length average = 1
Total in-flight flits = 2 (0 measured)
latency change    = 0.0781908
throughput change = 0.139241
Class 0:
Packet latency average = 22.7105
	minimum = 7
	maximum = 77
Network latency average = 22.7105
	minimum = 7
	maximum = 77
Slowest packet = 938
Flit latency average = 22.7105
	minimum = 7
	maximum = 77
Slowest flit = 938
Fragmentation average = 0
	minimum = 0
	maximum = 0
Injected packet rate average = 0.00975
	minimum = 0.004 (at node 1)
	maximum = 0.018 (at node 9)
Accepted packet rate average = 0.0095
	minimum = 0.004 (at node 3)
	maximum = 0.018 (at node 1)
Injected flit rate average = 0.00975
	minimum = 0.004 (at node 1)
	maximum = 0.018 (at node 9)
Accepted flit rate average= 0.0095
	minimum = 0.004 (at node 3)
	maximum = 0.018 (at node 1)
Injected packet length average = 1
Accepted packet length average = 1
Total in-flight flits = 4 (0 measured)
latency change    = 0.0460566
throughput change = 0.0394737
Warmed up ...Time used is 1500 cycles
Class 0:
Packet latency average = 22.8049
	minimum = 7
	maximum = 67
Network latency average = 22.8049
	minimum = 7
	maximum = 67
Slowest packet = 994
Flit latency average = 22.593
	minimum = 7
	maximum = 67
Slowest flit = 994
Fragmentation average = 0
	minimum = 0
	maximum = 0
Injected packet rate average = 0.0105
	minimum = 0.004 (at node 6)
	maximum = 0.016 (at node 5)
Accepted packet rate average = 0.01075
	minimum = 0.004 (at node 9)
	maximum = 0.018 (at node 0)
Injected flit rate average = 0.0105
	minimum = 0.004 (at node 6)
	maximum = 0.016 (at node 5)
Accepted flit rate average= 0.01075
	minimum = 0.004 (at node 9)
	maximum = 0.018 (at node 0)
Injected packet length average = 1
Accepted packet length average = 1
Total in-flight flits = 2 (2 measured)
latency change    = 0.00413735
throughput change = 0.116279
Class 0:
Packet latency average = 23.5235
	minimum = 7
	maximum = 77
Network latency average = 23.5235
	minimum = 7
	maximum = 77
Slowest packet = 1101
Flit latency average = 23.4023
	minimum = 7
	maximum = 77
Slowest flit = 1101
Fragmentation average = 0
	minimum = 0
	maximum = 0
Injected packet rate average = 0.010875
	minimum = 0.007 (at node 6)
	maximum = 0.015 (at node 5)
Accepted packet rate average = 0.010875
	minimum = 0.003 (at node 11)
	maximum = 0.018 (at node 0)
Injected flit rate average = 0.010875
	minimum = 0.007 (at node 6)
	maximum = 0.015 (at node 5)
Accepted flit rate average= 0.010875
	minimum = 0.003 (at node 11)
	maximum = 0.018 (at node 0)
Injected packet length average = 1
Accepted packet length average = 1
Total in-flight flits = 4 (4 measured)
latency change    = 0.0305503
throughput change = 0.0114943
Class 0:
Packet latency average = 23.2191
	minimum = 7
	maximum = 77
Network latency average = 23.2191
	minimum = 7
	maximum = 77
Slowest packet = 1101
Flit latency average = 23.1412
	minimum = 7
	maximum = 77
Slowest flit = 1101
Fragmentation average = 0
	minimum = 0
	maximum = 0
Injected packet rate average = 0.0107083
	minimum = 0.00866667 (at node 2)
	maximum = 0.0153333 (at node 5)
Accepted packet rate average = 0.010625
	minimum = 0.00533333 (at node 11)
	maximum = 0.016 (at node 8)
Injected flit rate average = 0.0107083
	minimum = 0.00866667 (at node 2)
	maximum = 0.0153333 (at node 5)
Accepted flit rate average= 0.010625
	minimum = 0.00533333 (at node 11)
	maximum = 0.016 (at node 8)
Injected packet length average = 1
Accepted packet length average = 1
Total in-flight flits = 6 (6 measured)
latency change    = 0.0131101
throughput change = 0.0235294
Class 0:
Packet latency average = 23.0579
	minimum = 7
	maximum = 77
Network latency average = 23.0579
	minimum = 7
	maximum = 77
Slowest packet = 1101
Flit latency average = 23
	minimum = 7
	maximum = 77
Slowest flit = 1101
Fragmentation average = 0
	minimum = 0
	maximum = 0
Injected packet rate average = 0.0104063
	minimum = 0.008 (at node 6)
	maximum = 0.015 (at node 3)
Accepted packet rate average = 0.010375
	minimum = 0.0055 (at node 11)
	maximum = 0.0155 (at node 0)
Injected flit rate average = 0.0104063
	minimum = 0.008 (at node 6)
	maximum = 0.015 (at node 3)
Accepted flit rate average= 0.010375
	minimum = 0.0055 (at node 11)
	maximum = 0.0155 (at node 0)
Injected packet length average = 1
Accepted packet length average = 1
Total in-flight flits = 5 (5 measured)
latency change    = 0.00699094
throughput change = 0.0240964
Draining all recorded packets ...
Draining remaining packets ...
Time taken is 3548 cycles
Class 0:
Packet latency average = 21.9067
	minimum = 7
	maximum = 72
Network latency average = 21.9067
	minimum = 7
	maximum = 72
Slowest packet = 1304
Flit latency average = 21.9067
	minimum = 7
	maximum = 72
Slowest flit = 1304
Fragmentation average = 0
	minimum = 0
	maximum = 0
Injected packet rate average = 0.00975
	minimum = 0.002 (at node 11)
	maximum = 0.014 (at node 1)
Accepted packet rate average = 0.009375
	minimum = 0.002 (at node 0)
	maximum = 0.016 (at node 5)
Injected flit rate average = 0.00975
	minimum = 0.002 (at node 11)
	maximum = 0.014 (at node 1)
Accepted flit rate average= 0.009375
	minimum = 0.002 (at node 0)
	maximum = 0.016 (at node 5)
Injected packet length average = 1
Accepted packet length average = 1
Total in-flight flits = 3 (0 measured)
latency change    = 1
throughput change = 1
Class 0:
Packet latency average = 22
	minimum = 7
	maximum = 72
Network latency average = 22
	minimum = 7
	maximum = 72
Slowest packet = 1304
Flit latency average = 22
	minimum = 7
	maximum = 72
Slowest flit = 1304
Fragmentation average = 0
	minimum = 0
	maximum = 0
Injected packet rate average = 0.0105625
	minimum = 0.006 (at node 5)
	maximum = 0.015 (at node 8)
Accepted packet rate average = 0.01025
	minimum = 0.003 (at node 0)
	maximum = 0.015 (at node 5)
Injected flit rate average = 0.0105625
	minimum = 0.006 (at node 5)
	maximum = 0.015 (at node 8)
Accepted flit rate average= 0.01025
	minimum = 0.003 (at node 0)
	maximum = 0.015 (at node 5)
Injected packet length average = 1
Accepted packet length average = 1
Total in-flight flits = 5 (0 measured)
latency change    = 0.00424242
throughput change = 0.0853659
Class 0:
Packet latency average = 22.2604
	minimum = 7
	maximum = 77
Network latency average = 22.2604
	minimum = 7
	maximum = 77
Slowest packet = 1475
Flit latency average = 22.2604
	minimum = 7
	maximum = 77
Slowest flit = 1475
Fragmentation average = 0
	minimum = 0
	maximum = 0
Injected packet rate average = 0.011375
	minimum = 0 (at node 7)
	maximum = 0.022 (at node 0)
Accepted packet rate average = 0.012
	minimum = 0.002 (at node 4)
	maximum = 0.02 (at node 3)
Injected flit rate average = 0.011375
	minimum = 0 (at node 7)
	maximum = 0.022 (at node 0)
Accepted flit rate average= 0.012
	minimum = 0.002 (at node 4)
	maximum = 0.02 (at node 3)
Injected packet length average = 1
Accepted packet length average = 1
Total in-flight flits = 0 (0 measured)
latency change    = 0.0116986
throughput change = 0.145833
Warmed up ...Time used is 1500 cycles
Class 0:
Packet latency average = 22.172
	minimum = 7
	maximum = 70
Network latency average = 22.172
	minimum = 7
	maximum = 70
Slowest packet = 1558
Flit latency average = 22.172
	minimum = 7
	maximum = 70
Slowest flit = 1558
Fragmentation average = 0
	minimum = 0
	maximum = 0
Injected packet rate average = 0.011875
	minimum = 0.004 (at node 1)
	maximum = 0.022 (at node 0)
Accepted packet rate average = 0.011625
	minimum = 0.006 (at node 7)
	maximum = 0.026 (at node 6)
Injected flit rate average = 0.011875
	minimum = 0.004 (at node 1)
	maximum = 0.022 (at node 0)
Accepted flit rate average= 0.011625
	minimum = 0.006 (at node 7)
	maximum = 0.026 (at node 6)
Injected packet length average = 1
Accepted packet length average = 1
Total in-flight flits = 2 (2 measured)
latency change    = 0.00398581
throughput change = 0.0322581
Class 0:
Packet latency average = 21.8621
	minimum = 7
	maximum = 77
Network latency average = 21.8621
	minimum = 7
	maximum = 77
Slowest packet = 1632
Flit latency average = 21.8621
	minimum = 7
	maximum = 77
Slowest flit = 1632
Fragmentation average = 0
	minimum = 0
	maximum = 0
Injected packet rate average = 0.011375
	minimum = 0.005 (at node 3)
	maximum = 0.019 (at node 14)
Accepted packet rate average = 0.010875
	minimum = 0.007 (at node 13)
	maximum = 0.016 (at node 6)
Injected flit rate average = 0.011375
	minimum = 0.005 (at node 3)
	maximum = 0.019 (at node 14)
Accepted flit rate average= 0.010875
	minimum = 0.007 (at node 13)
	maximum = 0.016 (at node 6)
Injected packet length average = 1
Accepted packet length average = 1
Total in-flight flits = 8 (8 measured)
latency change    = 0.0141786
throughput change = 0.0689655
Class 0:
Packet latency average = 22.5407
	minimum = 7
	maximum = 77
Network latency average = 22.5407
	minimum = 7
	maximum = 77
Slowest packet = 1632
Flit latency average = 22.5407
	minimum = 7
	maximum = 77
Slowest flit = 1632
Fragmentation average = 0
	minimum = 0
	maximum = 0
Injected packet rate average = 0.0114583
	minimum = 0.00466667 (at node 1)
	maximum = 0.018 (at node 6)
Accepted packet rate average = 0.01125
	minimum = 0.008 (at node 13)
	maximum = 0.0153333 (at node 2)
Injected flit rate average = 0.0114583
	minimum = 0.00466667 (at node 1)
	maximum = 0.018 (at node 6)
Accepted flit rate average= 0.01125
	minimum = 0.008 (at node 13)
	maximum = 0.0153333 (at node 2)
Injected packet length average = 1
Accepted packet length average = 1
Total in-flight flits = 5 (5 measured)
latency change    = 0.0301087
throughput change = 0.0333333
Class 0:
Packet latency average = 22.6056
	minimum = 7
	maximum = 77
Network latency average = 22.6056
	minimum = 7
	maximum = 77
Slowest packet = 1632
Flit latency average = 22.6056
	minimum = 7
	maximum = 77
Slowest flit = 1632
Fragmentation average = 0
	minimum = 0
	maximum = 0
Injected packet rate average = 0.0113437
	minimum = 0.0065 (at node 9)
	maximum = 0.0155 (at node 6)
Accepted packet rate average = 0.01125
	minimum = 0.009 (at node 12)
	maximum = 0.014 (at node 15)
Injected flit rate average = 0.0113437
	minimum = 0.0065 (at node 9)
	maximum = 0.0155 (at node 6)
Accepted flit rate average= 0.01125
	minimum = 0.009 (at node 12)
	maximum = 0.014 (at node 15)
Injected packet length average = 1
Accepted packet length average = 1
Total in-flight flits = 3 (3 measured)
latency change    = 0.00286721
throughput change = 0
Class 0:
Packet latency average = 22.4842
	minimum = 7
	maximum = 77
Network latency average = 22.4842
	minimum = 7
	maximum = 77
Slowest packet = 1632
Flit latency average = 22.4842
	minimum = 7
	maximum = 77
Slowest flit = 1632
Fragmentation average = 0
	minimum = 0
	maximum = 0
Injected packet rate average = 0.0111
	minimum = 0.0056 (at node 9)
	maximum = 0.0144 (at node 6)
Accepted packet rate average = 0.01105
	minimum = 0.0088 (at node 9)
	maximum = 0.014 (at node 8)
Injected flit rate average = 0.0111
	minimum = 0.0056 (at node 9)
	maximum = 0.0144 (at node 6)
Accepted flit rate average= 0.01105
	minimum = 0.0088 (at node 9)
	maximum = 0.014 (at node 8)
Injected packet length average = 1
Accepted packet length average = 1
Total in-flight flits = 2 (2 measured)
latency change    = 0.00539903
throughput change = 0.0180995
Draining all recorded packets ...
Draining remaining packets ...
Time taken is 4045 cycles
Class 0:
Packet latency average = 22.5429
	minimum = 7
	maximum = 77
Network latency average = 22.5429
	minimum = 7
	maximum = 77
Slowest packet = 2036
Flit latency average = 22.5429
	minimum = 7
	maximum = 77
Slowest flit = 2036
Fragmentation average = 0
	minimum = 0
	maximum = 0
Injected packet rate average = 0.009125
	minimum = 0.002 (at node 10)
	maximum = 0.012 (at node 0)
Accepted packet rate average = 0.00875
	minimum = 0.004 (at node 5)
	maximum = 0.016 (at node 1)
Injected flit rate average = 0.009125
	minimum = 0.002 (at node 10)
	maximum = 0.012 (at node 0)
Accepted flit rate average= 0.00875
	minimum = 0.004 (at node 5)
	maximum = 0.016 (at node 1)
Injected packet length average = 1
Accepted packet length average = 1
Total in-flight flits = 3 (0 measured)
latency change    = 1
throughput change = 1
Class 0:
Packet latency average = 22.9718
	minimum = 7
	maximum = 77
Network latency average = 22.9718
	minimum = 7
	maximum = 77
Slowest packet = 2036
Flit latency average = 22.9718
	minimum = 7
	maximum = 77
Slowest flit = 2036
Fragmentation average = 0
	minimum = 0
	maximum = 0
Injected packet rate average = 0.0091875
	minimum = 0.003 (at node 10)
	maximum = 0.014 (at node 0)
Accepted packet rate average = 0.008875
	minimum = 0.003 (at node 5)
	maximum = 0.016 (at node 9)
Injected flit rate average = 0.0091875
	minimum = 0.003 (at node 10)
	maximum = 0.014 (at node 0)
Accepted flit rate average= 0.008875
	minimum = 0.003 (at node 5)
	maximum = 0.016 (at node 9)
Injected packet length average = 1
Accepted packet length average = 1
Total in-flight flits = 5 (0 measured)
latency change    = 0.0186739
throughput change = 0.0140845
Class 0:
Packet latency average = 21.7872
	minimum = 7
	maximum = 67
Network latency average = 21.7872
	minimum = 7
	maximum = 67
Slowest packet = 2204
Flit latency average = 21.7872
	minimum = 7
	maximum = 67
Slowest flit = 2204
Fragmentation average = 0
	minimum = 0
	maximum = 0
Injected packet rate average = 0.011125
	minimum = 0.004 (at node 6)
	maximum = 0.022 (at node 14)
Accepted packet rate average = 0.01175
	minimum = 0.002 (at node 9)
	maximum = 0.022 (at node 5)
Injected flit rate average = 0.011125
	minimum = 0.004 (at node 6)
	maximum = 0.022 (at node 14)
Accepted flit rate average= 0.01175
	minimum = 0.002 (at node 9)
	maximum = 0.022 (at node 5)
Injected packet length average = 1
Accepted packet length average = 1
Total in-flight flits = 0 (0 measured)
latency change    = 0.0543711
throughput change = 0.244681
Warmed up ...Time used is 1500 cycles
Class 0:
Packet latency average = 21.2368
	minimum = 7
	maximum = 62
Network latency average = 21.2368
	minimum = 7
	maximum = 62
Slowest packet = 2249
Flit latency average = 21.2368
	minimum = 7
	maximum = 62
Slowest flit = 2249
Fragmentation average = 0
	minimum = 0
	maximum = 0
Injected packet rate average = 0.00975
	minimum = 0.004 (at node 8)
	maximum = 0.016 (at node 4)
Accepted packet rate average = 0.0095
	minimum = 0.004 (at node 10)
	maximum = 0.016 (at node 11)
Injected flit rate average = 0.00975
	minimum = 0.004 (at node 8)
	maximum = 0.016 (at node 4)
Accepted flit rate average= 0.0095
	minimum = 0.004 (at node 10)
	maximum = 0.016 (at node 11)
Injected packet length average = 1
Accepted packet length average = 1
Total in-flight flits = 2 (2 measured)
latency change    = 0.0259168
throughput change = 0.236842
Class 0:
Packet latency average = 20.8947
	minimum = 7
	maximum = 72
Network latency average = 20.8947
	minimum = 7
	maximum = 72
Slowest packet = 2317
Flit latency average = 20.8947
	minimum = 7
	maximum = 72
Slowest flit = 2317
Fragmentation average = 0
	minimum = 0
	maximum = 0
Injected packet rate average = 0.009625
	minimum = 0.005 (at node 3)
	maximum = 0.015 (at node 5)
Accepted packet rate average = 0.0095
	minimum = 0.004 (at node 9)
	maximum = 0.016 (at node 11)
Injected flit rate average = 0.009625
	minimum = 0.005 (at node 3)
	maximum = 0.015 (at node 5)
Accepted flit rate average= 0.0095
	minimum = 0.004 (at node 9)
	maximum = 0.016 (at node 11)
Injected packet length average = 1
Accepted packet length average = 1
Total in-flight flits = 2 (2 measured)
latency change    = 0.0163728
throughput change = 0
Class 0:
Packet latency average = 21.5541
	minimum = 7
	maximum = 72
Network latency average = 21.5541
	minimum = 7
	maximum = 72
Slowest packet = 2317
Flit latency average = 21.5541
	minimum = 7
	maximum = 72
Slowest flit = 2317
Fragmentation average = 0
	minimum = 0
	maximum = 0
Injected packet rate average = 0.00970833
	minimum = 0.006 (at node 3)
	maximum = 0.0126667 (at node 5)
Accepted packet rate average = 0.009625
	minimum = 0.006 (at node 9)
	maximum = 0.014 (at node 11)
Injected flit rate average = 0.00970833
	minimum = 0.006 (at node 3)
	maximum = 0.0126667 (at node 5)
Accepted flit rate average= 0.009625
	minimum = 0.006 (at node 9)
	maximum = 0.014 (at node 11)
Injected packet length average = 1
Accepted packet length average = 1
Total in-flight flits = 2 (2 measured)
latency change    = 0.0305916
throughput change = 0.012987
Class 0:
Packet latency average = 21.9257
	minimum = 7
	maximum = 72
Network latency average = 21.9257
	minimum = 7
	maximum = 72
Slowest packet = 2317
Flit latency average = 21.9257
	minimum = 7
	maximum = 72
Slowest flit = 2317
Fragmentation average = 0
	minimum = 0
	maximum = 0
Injected packet rate average = 0.0101875
	minimum = 0.0065 (at node 3)
	maximum = 0.012 (at node 1)
Accepted packet rate average = 0.0100938
	minimum = 0.007 (at node 9)
	maximum = 0.016 (at node 11)
Injected flit rate average = 0.0101875
	minimum = 0.0065 (at node 3)
	maximum = 0.012 (at node 1)
Accepted flit rate average= 0.0100938
	minimum = 0.007 (at node 9)
	maximum = 0.016 (at node 11)
Injected packet length average = 1
Accepted packet length average = 1
Total in-flight flits = 3 (3 measured)
latency change    = 0.0169474
throughput change = 0.0464396
Draining all recorded packets ...
Draining remaining packets ...
Time taken is 3547 cycles
Class 0:
Packet latency average = 24.7927
	minimum = 12
	maximum = 67
Network latency average = 24.7927
	minimum = 12
	maximum = 67
Slowest packet = 2618
Flit latency average = 24.7927
	minimum = 12
	maximum = 67
Slowest flit = 2618
Fragmentation average = 0
	minimum = 0
	maximum = 0
Injected packet rate average = 0.01075
	minimum = 0.006 (at node 4)
	maximum = 0.018 (at node 11)
Accepted packet rate average = 0.01025
	minimum = 0.002 (at node 9)
	maximum = 0.018 (at node 8)
Injected flit rate average = 0.01075
	minimum = 0.006 (at node 4)
	maximum = 0.018 (at node 11)
Accepted flit rate average= 0.01025
	minimum = 0.002 (at node 9)
	maximum = 0.018 (at node 8)
Injected packet length average = 1
Accepted packet length average = 1
Total in-flight flits = 4 (0 measured)
latency change    = 1
throughput change = 1
Class 0:
Packet latency average = 24.1288
	minimum = 7
	maximum = 77
Network latency average = 24.1288
	minimum = 7
	maximum = 77
Slowest packet = 2660
Flit latency average = 24.1288
	minimum = 7
	maximum = 77
Slowest flit = 2660
Fragmentation average = 0
	minimum = 0
	maximum = 0
Injected packet rate average = 0.0104375
	minimum = 0.005 (at node 7)
	maximum = 0.016 (at node 3)
Accepted packet rate average = 0.0101875
	minimum = 0.006 (at node 2)
	maximum = 0.022 (at node 10)
Injected flit rate average = 0.0104375
	minimum = 0.005 (at node 7)
	maximum = 0.016 (at node 3)
Accepted flit rate average= 0.0101875
	minimum = 0.006 (at node 2)
	maximum = 0.022 (at node 10)
Injected packet length average = 1
Accepted packet length average = 1
Total in-flight flits = 4 (0 measured)
latency change    = 0.0275127
throughput change = 0.00613497
Class 0:
Packet latency average = 25.0286
	minimum = 7
	maximum = 72
Network latency average = 25.0286
	minimum = 7
	maximum = 72
Slowest packet = 2716
Flit latency average = 25.0286
	minimum = 7
	maximum = 72
Slowest flit = 2716
Fragmentation average = 0
	minimum = 0
	maximum = 0
Injected packet rate average = 0.0085
	minimum = 0 (at node 7)
	maximum = 0.016 (at node 0)
Accepted packet rate average = 0.00875
	minimum = 0.004 (at node 10)
	maximum = 0.016 (at node 3)
Injected flit rate average = 0.0085
	minimum = 0 (at node 7)
	maximum = 0.016 (at node 0)
Accepted flit rate average= 0.00875
	minimum = 0.004 (at node 10)
	maximum = 0.016 (at node 3)
Injected packet length average = 1
Accepted packet length average = 1
Total in-flight flits = 2 (0 measured)
latency change    = 0.0359484
throughput change = 0.164286
Warmed up ...Time used is 1500 cycles
Class 0:
Packet latency average = 21.6232
	minimum = 7
	maximum = 62
Network latency average = 21.6232
	minimum = 7
	maximum = 62
Slowest packet = 2807
Flit latency average = 21.6338
	minimum = 7
	maximum = 62
Slowest flit = 2807
Fragmentation average = 0
	minimum = 0
	maximum = 0
Injected packet rate average = 0.00875
	minimum = 0.002 (at node 8)
	maximum = 0.018 (at node 6)
Accepted packet rate average = 0.008875
	minimum = 0.002 (at node 9)
	maximum = 0.016 (at node 6)
Injected flit rate average = 0.00875
	minimum = 0.002 (at node 8)
	maximum = 0.018 (at node 6)
Accepted flit rate average= 0.008875
	minimum = 0.002 (at node 9)
	maximum = 0.016 (at node 6)
Injected packet length average = 1
Accepted packet length average = 1
Total in-flight flits = 1 (1 measured)
latency change    = 0.157488
throughput change = 0.0140845
Class 0:
Packet latency average = 22.731
	minimum = 7
	maximum = 67
Network latency average = 22.731
	minimum = 7
	maximum = 67
Slowest packet = 2905
Flit latency average = 22.7211
	minimum = 7
	maximum = 67
Slowest flit = 2905
Fragmentation average = 0
	minimum = 0
	maximum = 0
Injected packet rate average = 0.0091875
	minimum = 0.005 (at node 3)
	maximum = 0.013 (at node 4)
Accepted packet rate average = 0.0091875
	minimum = 0.004 (at node 9)
	maximum = 0.014 (at node 0)
Injected flit rate average = 0.0091875
	minimum = 0.005 (at node 3)
	maximum = 0.013 (at node 4)
Accepted flit rate average= 0.0091875
	minimum = 0.004 (at node 9)
	maximum = 0.014 (at node 0)
Injected packet length average = 1
Accepted packet length average = 1
Total in-flight flits = 2 (2 measured)
latency change    = 0.0487372
throughput change = 0.0340136
Class 0:
Packet latency average = 21.9575
	minimum = 7
	maximum = 67
Network latency average = 21.9575
	minimum = 7
	maximum = 67
Slowest packet = 2905
Flit latency average = 21.9579
	minimum = 7
	maximum = 67
Slowest flit = 2905
Fragmentation average = 0
	minimum = 0
	maximum = 0
Injected packet rate average = 0.00908333
	minimum = 0.00666667 (at node 1)
	maximum = 0.0113333 (at node 0)
Accepted packet rate average = 0.00891667
	minimum = 0.00333333 (at node 9)
	maximum = 0.0133333 (at node 2)
Injected flit rate average = 0.00908333
	minimum = 0.00666667 (at node 1)
	maximum = 0.0113333 (at node 0)
Accepted flit rate average= 0.00891667
	minimum = 0.00333333 (at node 9)
	maximum = 0.0133333 (at node 2)
Injected packet length average = 1
Accepted packet length average = 1
Total in-flight flits = 6 (6 measured)
latency change    = 0.0352265
throughput change = 0.0303738
Class 0:
Packet latency average = 22.0252
	minimum = 7
	maximum = 77
Network latency average = 22.0252
	minimum = 7
	maximum = 77
Slowest packet = 3034
Flit latency average = 22.025
	minimum = 7
	maximum = 77
Slowest flit = 3034
Fragmentation average = 0
	minimum = 0
	maximum = 0
Injected packet rate average = 0.00878125
	minimum = 0.006 (at node 3)
	maximum = 0.011 (at node 2)
Accepted packet rate average = 0.00875
	minimum = 0.005 (at node 9)
	maximum = 0.0115 (at node 2)
Injected flit rate average = 0.00878125
	minimum = 0.006 (at node 3)
	maximum = 0.011 (at node 2)
Accepted flit rate average= 0.00875
	minimum = 0.005 (at node 9)
	maximum = 0.0115 (at node 2)
Injected packet length average = 1
Accepted packet length average = 1
Total in-flight flits = 3 (3 measured)
latency change    = 0.0030707
throughput change = 0.0190476
Draining all recorded packets ...
Draining remaining packets ...
Time taken is 3559 cycles
Class 0:
Packet latency average = 23.7407
	minimum = 7
	maximum = 67
Network latency average = 23.7407
	minimum = 7
	maximum = 67
Slowest packet = 3099
Flit latency average = 23.7407
	minimum = 7
	maximum = 67
Slowest flit = 3099
Fragmentation average = 0
	minimum = 0
	maximum = 0
Injected packet rate average = 0.0105
	minimum = 0.002 (at node 4)
	maximum = 0.026 (at node 12)
Accepted packet rate average = 0.010125
	minimum = 0.004 (at node 2)
	maximum = 0.022 (at node 0)
Injected flit rate average = 0.0105
	minimum = 0.002 (at node 4)
	maximum = 0.026 (at node 12)
Accepted flit rate average= 0.010125
	minimum = 0.004 (at node 2)
	maximum = 0.022 (at node 0)
Injected packet length average = 1
Accepted packet length average = 1
Total in-flight flits = 3 (0 measured)
latency change    = 1
throughput change = 1
Class 0:
Packet latency average = 23.0764
	minimum = 7
	maximum = 67
Network latency average = 23.0764
	minimum = 7
	maximum = 67
Slowest packet = 3099
Flit latency average = 23.0764
	minimum = 7
	maximum = 67
Slowest flit = 3099
Fragmentation average = 0
	minimum = 0
	maximum = 0
Injected packet rate average = 0.0099375
	minimum = 0.005 (at node 4)
	maximum = 0.019 (at node 12)
Accepted packet rate average = 0.0098125
	minimum = 0.006 (at node 2)
	maximum = 0.017 (at node 1)
Injected flit rate average = 0.0099375
	minimum = 0.005 (at node 4)
	maximum = 0.019 (at node 12)
Accepted flit rate average= 0.0098125
	minimum = 0.006 (at node 2)
	maximum = 0.017 (at node 1)
Injected packet length average = 1
Accepted packet length average = 1
Total in-flight flits = 2 (0 measured)
latency change    = 0.0287873
throughput change = 0.0318471
Class 0:
Packet latency average = 22.3474
	minimum = 7
	maximum = 67
Network latency average = 22.3474
	minimum = 7
	maximum = 67
Slowest packet = 3320
Flit latency average = 22.3474
	minimum = 7
	maximum = 67
Slowest flit = 3320
Fragmentation average = 0
	minimum = 0
	maximum = 0
Injected packet rate average = 0.011875
	minimum = 0.006 (at node 9)
	maximum = 0.022 (at node 15)
Accepted packet rate average = 0.011875
	minimum = 0.006 (at node 1)
	maximum = 0.02 (at node 2)
Injected flit rate average = 0.011875
	minimum = 0.006 (at node 9)
	maximum = 0.022 (at node 15)
Accepted flit rate average= 0.011875
	minimum = 0.006 (at node 1)
	maximum = 0.02 (at node 2)
Injected packet length average = 1
Accepted packet length average = 1
Total in-flight flits = 2 (0 measured)
latency change    = 0.0326242
throughput change = 0.173684
Warmed up ...Time used is 1500 cycles
Class 0:
Packet latency average = 20.7229
	minimum = 7
	maximum = 47
Network latency average = 20.7229
	minimum = 7
	maximum = 47
Slowest packet = 3342
Flit latency average = 20.7529
	minimum = 7
	maximum = 47
Slowest flit = 3342
Fragmentation average = 0
	minimum = 0
	maximum = 0
Injected packet rate average = 0.01075
	minimum = 0.004 (at node 2)
	maximum = 0.022 (at node 3)
Accepted packet rate average = 0.010625
	minimum = 0.002 (at node 12)
	maximum = 0.022 (at node 2)
Injected flit rate average = 0.01075
	minimum = 0.004 (at node 2)
	maximum = 0.022 (at node 3)
Accepted flit rate average= 0.010625
	minimum = 0.002 (at node 12)
	maximum = 0.022 (at node 2)
Injected packet length average = 1
Accepted packet length average = 1
Total in-flight flits = 3 (3 measured)
latency change    = 0.0783905
throughput change = 0.117647
Class 0:
Packet latency average = 21.1807
	minimum = 7
	maximum = 52
Network latency average = 21.1807
	minimum = 7
	maximum = 52
Slowest packet = 3428
Flit latency average = 21.1905
	minimum = 7
	maximum = 52
Slowest flit = 3428
Fragmentation average = 0
	minimum = 0
	maximum = 0
Injected packet rate average = 0.010625
	minimum = 0.007 (at node 2)
	maximum = 0.016 (at node 3)
Accepted packet rate average = 0.0105
	minimum = 0.005 (at node 12)
	maximum = 0.017 (at node 2)
Injected flit rate average = 0.010625
	minimum = 0.007 (at node 2)
	maximum = 0.016 (at node 3)
Accepted flit rate average= 0.0105
	minimum = 0.005 (at node 12)
	maximum = 0.017 (at node 2)
Injected packet length average = 1
Accepted packet length average = 1
Total in-flight flits = 4 (4 measured)
latency change    = 0.0216155
throughput change = 0.0119048
Class 0:
Packet latency average = 21.3415
	minimum = 7
	maximum = 67
Network latency average = 21.3415
	minimum = 7
	maximum = 67
Slowest packet = 3509
Flit latency average = 21.3468
	minimum = 7
	maximum = 67
Slowest flit = 3509
Fragmentation average = 0
	minimum = 0
	maximum = 0
Injected packet rate average = 0.010375
	minimum = 0.00666667 (at node 12)
	maximum = 0.0133333 (at node 3)
Accepted packet rate average = 0.0103333
	minimum = 0.00666667 (at node 9)
	maximum = 0.0153333 (at node 5)
Injected flit rate average = 0.010375
	minimum = 0.00666667 (at node 12)
	maximum = 0.0133333 (at node 3)
Accepted flit rate average= 0.0103333
	minimum = 0.00666667 (at node 9)
	maximum = 0.0153333 (at node 5)
Injected packet length average = 1
Accepted packet length average = 1
Total in-flight flits = 3 (3 measured)
latency change    = 0.00753184
throughput change = 0.016129
Class 0:
Packet latency average = 21.128
	minimum = 7
	maximum = 67
Network latency average = 21.128
	minimum = 7
	maximum = 67
Slowest packet = 3509
Flit latency average = 21.1333
	minimum = 7
	maximum = 67
Slowest flit = 3509
Fragmentation average = 0
	minimum = 0
	maximum = 0
Injected packet rate average = 0.0103125
	minimum = 0.0055 (at node 10)
	maximum = 0.014 (at node 7)
Accepted packet rate average = 0.0103125
	minimum = 0.0065 (at node 9)
	maximum = 0.0145 (at node 2)
Injected flit rate average = 0.0103125
	minimum = 0.0055 (at node 10)
	maximum = 0.014 (at node 7)
Accepted flit rate average= 0.0103125
	minimum = 0.0065 (at node 9)
	maximum = 0.0145 (at node 2)
Injected packet length average = 1
Accepted packet length average = 1
Total in-flight flits = 2 (2 measured)
latency change    = 0.010101
throughput change = 0.0020202
Draining all recorded packets ...
Draining remaining packets ...
Time taken is 3543 cycles
Class 0:
Packet latency average = 22.1923
	minimum = 7
	maximum = 77
Network latency average = 22.1923
	minimum = 7
	maximum = 77
Slowest packet = 3675
Flit latency average = 22.1923
	minimum = 7
	maximum = 77
Slowest flit = 3675
Fragmentation average = 0
	minimum = 0
	maximum = 0
Injected packet rate average = 0.010125
	minimum = 0.004 (at node 1)
	maximum = 0.018 (at node 13)
Accepted packet rate average = 0.00975
	minimum = 0.006 (at node 10)
	maximum = 0.018 (at node 0)
Injected flit rate average = 0.010125
	minimum = 0.004 (at node 1)
	maximum = 0.018 (at node 13)
Accepted flit rate average= 0.00975
	minimum = 0.006 (at node 10)
	maximum = 0.018 (at node 0)
Injected packet length average = 1
Accepted packet length average = 1
Total in-flight flits = 3 (0 measured)
latency change    = 1
throughput change = 1
Class 0:
Packet latency average = 23.7799
	minimum = 7
	maximum = 94
Network latency average = 23.7799
	minimum = 7
	maximum = 94
Slowest packet = 3756
Flit latency average = 23.7799
	minimum = 7
	maximum = 94
Slowest flit = 3756
Fragmentation average = 0
	minimum = 0
	maximum = 0
Injected packet rate average = 0.010125
	minimum = 0.003 (at node 1)
	maximum = 0.014 (at node 8)
Accepted packet rate average = 0.0099375
	minimum = 0.006 (at node 10)
	maximum = 0.015 (at node 6)
Injected flit rate average = 0.010125
	minimum = 0.003 (at node 1)
	maximum = 0.014 (at node 8)
Accepted flit rate average= 0.0099375
	minimum = 0.006 (at node 10)
	maximum = 0.015 (at node 6)
Injected packet length average = 1
Accepted packet length average = 1
Total in-flight flits = 3 (0 measured)
latency change    = 0.0667609
throughput change = 0.0188679
Class 0:
Packet latency average = 23.8852
	minimum = 7
	maximum = 67
Network latency average = 23.8852
	minimum = 7
	maximum = 67
Slowest packet = 3825
Flit latency average = 23.8852
	minimum = 7
	maximum = 67
Slowest flit = 3825
Fragmentation average = 0
	minimum = 0
	maximum = 0
Injected packet rate average = 0.00775
	minimum = 0 (at node 0)
	maximum = 0.016 (at node 4)
Accepted packet rate average = 0.007625
	minimum = 0 (at node 8)
	maximum = 0.018 (at node 7)
Injected flit rate average = 0.00775
	minimum = 0 (at node 0)
	maximum = 0.016 (at node 4)
Accepted flit rate average= 0.007625
	minimum = 0 (at node 8)
	maximum = 0.018 (at node 7)
Injected packet length average = 1
Accepted packet length average = 1
Total in-flight flits = 4 (0 measured)
latency change    = 0.00441158
throughput change = 0.303279
Warmed up ...Time used is 1500 cycles
Class 0:
Packet latency average = 20.1719
	minimum = 7
	maximum = 62
Network latency average = 20.1719
	minimum = 7
	maximum = 62
Slowest packet = 3929
Flit latency average = 20.7941
	minimum = 7
	maximum = 62
Slowest flit = 3929
Fragmentation average = 0
	minimum = 0
	maximum = 0
Injected packet rate average = 0.00875
	minimum = 0.002 (at node 14)
	maximum = 0.016 (at node 11)
Accepted packet rate average = 0.0085
	minimum = 0.002 (at node 2)
	maximum = 0.018 (at node 1)
Injected flit rate average = 0.00875
	minimum = 0.002 (at node 14)
	maximum = 0.016 (at node 11)
Accepted flit rate average= 0.0085
	minimum = 0.002 (at node 2)
	maximum = 0.018 (at node 1)
Injected packet length average = 1
Accepted packet length average = 1
Total in-flight flits = 6 (6 measured)
latency change    = 0.184087
throughput change = 0.102941
Class 0:
Packet latency average = 20.7622
	minimum = 7
	maximum = 62
Network latency average = 20.7622
	minimum = 7
	maximum = 62
Slowest packet = 3929
Flit latency average = 21.034
	minimum = 7
	maximum = 62
Slowest flit = 3929
Fragmentation average = 0
	minimum = 0
	maximum = 0
Injected packet rate average = 0.0091875
	minimum = 0.005 (at node 5)
	maximum = 0.014 (at node 15)
Accepted packet rate average = 0.0091875
	minimum = 0.004 (at node 14)
	maximum = 0.015 (at node 4)
Injected flit rate average = 0.0091875
	minimum = 0.005 (at node 5)
	maximum = 0.014 (at node 15)
Accepted flit rate average= 0.0091875
	minimum = 0.004 (at node 14)
	maximum = 0.015 (at node 4)
Injected packet length average = 1
Accepted packet length average = 1
Total in-flight flits = 4 (4 measured)
latency change    = 0.0284344
throughput change = 0.0748299
Class 0:
Packet latency average = 21.8462
	minimum = 7
	maximum = 77
Network latency average = 21.8462
	minimum = 7
	maximum = 77
Slowest packet = 4077
Flit latency average = 22.0044
	minimum = 7
	maximum = 77
Slowest flit = 4077
Fragmentation average = 0
	minimum = 0
	maximum = 0
Injected packet rate average = 0.00929167
	minimum = 0.00333333 (at node 5)
	maximum = 0.0133333 (at node 12)
Accepted packet rate average = 0.009375
	minimum = 0.00466667 (at node 8)
	maximum = 0.0133333 (at node 4)
Injected flit rate average = 0.00929167
	minimum = 0.00333333 (at node 5)
	maximum = 0.0133333 (at node 12)
Accepted flit rate average= 0.009375
	minimum = 0.00466667 (at node 8)
	maximum = 0.0133333 (at node 4)
Injected packet length average = 1
Accepted packet length average = 1
Total in-flight flits = 2 (2 measured)
latency change    = 0.0496159
throughput change = 0.02
Class 0:
Packet latency average = 22.5968
	minimum = 7
	maximum = 77
Network latency average = 22.5968
	minimum = 7
	maximum = 77
Slowest packet = 4077
Flit latency average = 22.7006
	minimum = 7
	maximum = 77
Slowest flit = 4077
Fragmentation average = 0
	minimum = 0
	maximum = 0
Injected packet rate average = 0.00975
	minimum = 0.0045 (at node 5)
	maximum = 0.013 (at node 15)
Accepted packet rate average = 0.0098125
	minimum = 0.0055 (at node 14)
	maximum = 0.013 (at node 9)
Injected flit rate average = 0.00975
	minimum = 0.0045 (at node 5)
	maximum = 0.013 (at node 15)
Accepted flit rate average= 0.0098125
	minimum = 0.0055 (at node 14)
	maximum = 0.013 (at node 9)
Injected packet length average = 1
Accepted packet length average = 1
Total in-flight flits = 2 (2 measured)
latency change    = 0.033218
throughput change = 0.044586
Class 0:
Packet latency average = 22.6573
	minimum = 7
	maximum = 77
Network latency average = 22.6573
	minimum = 7
	maximum = 77
Slowest packet = 4077
Flit latency average = 22.7392
	minimum = 7
	maximum = 77
Slowest flit = 4077
Fragmentation average = 0
	minimum = 0
	maximum = 0
Injected packet rate average = 0.00985
	minimum = 0.0044 (at node 5)
	maximum = 0.0128 (at node 4)
Accepted packet rate average = 0.009875
	minimum = 0.006 (at node 14)
	maximum = 0.014 (at node 9)
Injected flit rate average = 0.00985
	minimum = 0.0044 (at node 5)
	maximum = 0.0128 (at node 4)
Accepted flit rate average= 0.009875
	minimum = 0.006 (at node 14)
	maximum = 0.014 (at node 9)
Injected packet length average = 1
Accepted packet length average = 1
Total in-flight flits = 3 (3 measured)
latency change    = 0.00267088
throughput change = 0.00632911
Draining all recorded packets ...
Draining remaining packets ...
Time taken is 4079 cycles
Class 0:
Packet latency average = 22.3462
	minimum = 7
	maximum = 72
Network latency average = 22.3462
	minimum = 7
	maximum = 72
Slowest packet = 4313
Flit latency average = 22.3462
	minimum = 7
	maximum = 72
Slowest flit = 4313
Fragmentation average = 0
	minimum = 0
	maximum = 0
Injected packet rate average = 0.01025
	minimum = 0.006 (at node 8)
	maximum = 0.018 (at node 10)
Accepted packet rate average = 0.00975
	minimum = 0.002 (at node 15)
	maximum = 0.02 (at node 0)
Injected flit rate average = 0.01025
	minimum = 0.006 (at node 8)
	maximum = 0.018 (at node 10)
Accepted flit rate average= 0.00975
	minimum = 0.002 (at node 15)
	maximum = 0.02 (at node 0)
Injected packet length average = 1
Accepted packet length average = 1
Total in-flight flits = 4 (0 measured)
latency change    = 1
throughput change = 1
Class 0:
Packet latency average = 23.5529
	minimum = 7
	maximum = 82
Network latency average = 23.5529
	minimum = 7
	maximum = 82
Slowest packet = 4381
Flit latency average = 23.5529
	minimum = 7
	maximum = 82
Slowest flit = 4381
Fragmentation average = 0
	minimum = 0
	maximum = 0
Injected packet rate average = 0.0108125
	minimum = 0.007 (at node 8)
	maximum = 0.015 (at node 15)
Accepted packet rate average = 0.010625
	minimum = 0.005 (at node 7)
	maximum = 0.017 (at node 0)
Injected flit rate average = 0.0108125
	minimum = 0.007 (at node 8)
	maximum = 0.015 (at node 15)
Accepted flit rate average= 0.010625
	minimum = 0.005 (at node 7)
	maximum = 0.017 (at node 0)
Injected packet length average = 1
Accepted packet length average = 1
Total in-flight flits = 3 (0 measured)
latency change    = 0.0512372
throughput change = 0.0823529
Class 0:
Packet latency average = 21.8293
	minimum = 7
	maximum = 69
Network latency average = 21.8293
	minimum = 7
	maximum = 69
Slowest packet = 4496
Flit latency average = 21.8293
	minimum = 7
	maximum = 69
Slowest flit = 4496
Fragmentation average = 0
	minimum = 0
	maximum = 0
Injected packet rate average = 0.010625
	minimum = 0.002 (at node 7)
	maximum = 0.018 (at node 2)
Accepted packet rate average = 0.01025
	minimum = 0 (at node 14)
	maximum = 0.016 (at node 13)
Injected flit rate average = 0.010625
	minimum = 0.002 (at node 7)
	maximum = 0.018 (at node 2)
Accepted flit rate average= 0.01025
	minimum = 0 (at node 14)
	maximum = 0.016 (at node 13)
Injected packet length average = 1
Accepted packet length average = 1
Total in-flight flits = 6 (0 measured)
latency change    = 0.0789616
throughput change = 0.0365854
Warmed up ...Time used is 1500 cycles
Class 0:
Packet latency average = 22.875
	minimum = 7
	maximum = 62
Network latency average = 22.875
	minimum = 7
	maximum = 62
Slowest packet = 4585
Flit latency average = 22.8725
	minimum = 7
	maximum = 62
Slowest flit = 4585
Fragmentation average = 0
	minimum = 0
	maximum = 0
Injected packet rate average = 0.0125
	minimum = 0.004 (at node 6)
	maximum = 0.024 (at node 15)
Accepted packet rate average = 0.01275
	minimum = 0.004 (at node 11)
	maximum = 0.022 (at node 6)
Injected flit rate average = 0.0125
	minimum = 0.004 (at node 6)
	maximum = 0.024 (at node 15)
Accepted flit rate average= 0.01275
	minimum = 0.004 (at node 11)
	maximum = 0.022 (at node 6)
Injected packet length average = 1
Accepted packet length average = 1
Total in-flight flits = 4 (4 measured)
latency change    = 0.045715
throughput change = 0.196078
Class 0:
Packet latency average = 21.9639
	minimum = 7
	maximum = 62
Network latency average = 21.9639
	minimum = 7
	maximum = 62
Slowest packet = 4585
Flit latency average = 21.9942
	minimum = 7
	maximum = 62
Slowest flit = 4585
Fragmentation average = 0
	minimum = 0
	maximum = 0
Injected packet rate average = 0.010625
	minimum = 0.004 (at node 12)
	maximum = 0.016 (at node 14)
Accepted packet rate average = 0.01075
	minimum = 0.005 (at node 2)
	maximum = 0.018 (at node 0)
Injected flit rate average = 0.010625
	minimum = 0.004 (at node 12)
	maximum = 0.016 (at node 14)
Accepted flit rate average= 0.01075
	minimum = 0.005 (at node 2)
	maximum = 0.018 (at node 0)
Injected packet length average = 1
Accepted packet length average = 1
Total in-flight flits = 4 (4 measured)
latency change    = 0.0414838
throughput change = 0.186047
Class 0:
Packet latency average = 22.1057
	minimum = 7
	maximum = 71
Network latency average = 22.1057
	minimum = 7
	maximum = 71
Slowest packet = 4711
Flit latency average = 22.123
	minimum = 7
	maximum = 71
Slowest flit = 4711
Fragmentation average = 0
	minimum = 0
	maximum = 0
Injected packet rate average = 0.0105
	minimum = 0.00533333 (at node 5)
	maximum = 0.0153333 (at node 4)
Accepted packet rate average = 0.0105
	minimum = 0.006 (at node 2)
	maximum = 0.0173333 (at node 0)
Injected flit rate average = 0.0105
	minimum = 0.00533333 (at node 5)
	maximum = 0.0153333 (at node 4)
Accepted flit rate average= 0.0105
	minimum = 0.006 (at node 2)
	maximum = 0.0173333 (at node 0)
Injected packet length average = 1
Accepted packet length average = 1
Total in-flight flits = 6 (6 measured)
latency change    = 0.00641625
throughput change = 0.0238095
Class 0:
Packet latency average = 22.0772
	minimum = 7
	maximum = 71
Network latency average = 22.0772
	minimum = 7
	maximum = 71
Slowest packet = 4711
Flit latency average = 22.0904
	minimum = 7
	maximum = 71
Slowest flit = 4711
Fragmentation average = 0
	minimum = 0
	maximum = 0
Injected packet rate average = 0.0106875
	minimum = 0.007 (at node 13)
	maximum = 0.015 (at node 4)
Accepted packet rate average = 0.0107188
	minimum = 0.006 (at node 13)
	maximum = 0.0175 (at node 0)
Injected flit rate average = 0.0106875
	minimum = 0.007 (at node 13)
	maximum = 0.015 (at node 4)
Accepted flit rate average= 0.0107188
	minimum = 0.006 (at node 13)
	maximum = 0.0175 (at node 0)
Injected packet length average = 1
Accepted packet length average = 1
Total in-flight flits = 5 (5 measured)
latency change    = 0.00129273
throughput change = 0.0204082
Class 0:
Packet latency average = 21.5567
	minimum = 7
	maximum = 71
Network latency average = 21.5567
	minimum = 7
	maximum = 71
Slowest packet = 4711
Flit latency average = 21.5752
	minimum = 7
	maximum = 71
Slowest flit = 4711
Fragmentation average = 0
	minimum = 0
	maximum = 0
Injected packet rate average = 0.0103
	minimum = 0.0072 (at node 5)
	maximum = 0.014 (at node 14)
Accepted packet rate average = 0.0103
	minimum = 0.0068 (at node 13)
	maximum = 0.0144 (at node 0)
Injected flit rate average = 0.0103
	minimum = 0.0072 (at node 5)
	maximum = 0.014 (at node 14)
Accepted flit rate average= 0.0103
	minimum = 0.0068 (at node 13)
	maximum = 0.0144 (at node 0)
Injected packet length average = 1
Accepted packet length average = 1
Total in-flight flits = 6 (6 measured)
latency change    = 0.0241457
throughput change = 0.0406553
Draining all recorded packets ...
Draining remaining packets ...
Time taken is 4058 cycles
Class 0:
Packet latency average = 23.2048
	minimum = 7
	maximum = 52
Network latency average = 23.2048
	minimum = 7
	maximum = 52
Slowest packet = 4988
Flit latency average = 23.2048
	minimum = 7
	maximum = 52
Slowest flit = 4988
Fragmentation average = 0
	minimum = 0
	maximum = 0
Injected packet rate average = 0.010375
	minimum = 0.004 (at node 9)
	maximum = 0.02 (at node 12)
Accepted packet rate average = 0.010375
	minimum = 0.004 (at node 3)
	maximum = 0.026 (at node 11)
Injected flit rate average = 0.010375
	minimum = 0.004 (at node 9)
	maximum = 0.02 (at node 12)
Accepted flit rate average= 0.010375
	minimum = 0.004 (at node 3)
	maximum = 0.026 (at node 11)
Injected packet length average = 1
Accepted packet length average = 1
Total in-flight flits = 0 (0 measured)
latency change    = 1
throughput change = 1
Class 0:
Packet latency average = 22.2109
	minimum = 7
	maximum = 62
Network latency average = 22.2109
	minimum = 7
	maximum = 62
Slowest packet = 5059
Flit latency average = 22.2109
	minimum = 7
	maximum = 62
Slowest flit = 5059
Fragmentation average = 0
	minimum = 0
	maximum = 0
Injected packet rate average = 0.009375
	minimum = 0.006 (at node 1)
	maximum = 0.014 (at node 14)
Accepted packet rate average = 0.0091875
	minimum = 0.004 (at node 3)
	maximum = 0.016 (at node 11)
Injected flit rate average = 0.009375
	minimum = 0.006 (at node 1)
	maximum = 0.014 (at node 14)
Accepted flit rate average= 0.0091875
	minimum = 0.004 (at node 3)
	maximum = 0.016 (at node 11)
Injected packet length average = 1
Accepted packet length average = 1
Total in-flight flits = 3 (0 measured)
latency change    = 0.0447499
throughput change = 0.129252
Class 0:
Packet latency average = 21.046
	minimum = 7
	maximum = 72
Network latency average = 21.046
	minimum = 7
	maximum = 72
Slowest packet = 5121
Flit latency average = 21.046
	minimum = 7
	maximum = 72
Slowest flit = 5121
Fragmentation average = 0
	minimum = 0
	maximum = 0
Injected packet rate average = 0.010875
	minimum = 0.002 (at node 0)
	maximum = 0.018 (at node 9)
Accepted packet rate average = 0.010875
	minimum = 0.002 (at node 15)
	maximum = 0.022 (at node 11)
Injected flit rate average = 0.010875
	minimum = 0.002 (at node 0)
	maximum = 0.018 (at node 9)
Accepted flit rate average= 0.010875
	minimum = 0.002 (at node 15)
	maximum = 0.022 (at node 11)
Injected packet length average = 1
Accepted packet length average = 1
Total in-flight flits = 3 (0 measured)
latency change    = 0.0553506
throughput change = 0.155172
Warmed up ...Time used is 1500 cycles
Class 0:
Packet latency average = 22.8941
	minimum = 7
	maximum = 77
Network latency average = 22.8941
	minimum = 7
	maximum = 77
Slowest packet = 5247
Flit latency average = 23.8295
	minimum = 7
	maximum = 77
Slowest flit = 5247
Fragmentation average = 0
	minimum = 0
	maximum = 0
Injected packet rate average = 0.011
	minimum = 0.004 (at node 0)
	maximum = 0.02 (at node 15)
Accepted packet rate average = 0.011
	minimum = 0.006 (at node 4)
	maximum = 0.022 (at node 10)
Injected flit rate average = 0.011
	minimum = 0.004 (at node 0)
	maximum = 0.02 (at node 15)
Accepted flit rate average= 0.011
	minimum = 0.006 (at node 4)
	maximum = 0.022 (at node 10)
Injected packet length average = 1
Accepted packet length average = 1
Total in-flight flits = 3 (3 measured)
latency change    = 0.0807256
throughput change = 0.0113636
Class 0:
Packet latency average = 23.3976
	minimum = 7
	maximum = 77
Network latency average = 23.3976
	minimum = 7
	maximum = 77
Slowest packet = 5247
Flit latency average = 23.8757
	minimum = 7
	maximum = 77
Slowest flit = 5247
Fragmentation average = 0
	minimum = 0
	maximum = 0
Injected packet rate average = 0.0106875
	minimum = 0.003 (at node 0)
	maximum = 0.016 (at node 6)
Accepted packet rate average = 0.0105625
	minimum = 0.007 (at node 5)
	maximum = 0.017 (at node 10)
Injected flit rate average = 0.0106875
	minimum = 0.003 (at node 0)
	maximum = 0.016 (at node 6)
Accepted flit rate average= 0.0105625
	minimum = 0.007 (at node 5)
	maximum = 0.017 (at node 10)
Injected packet length average = 1
Accepted packet length average = 1
Total in-flight flits = 5 (5 measured)
latency change    = 0.0215181
throughput change = 0.0414201
Class 0:
Packet latency average = 22.6298
	minimum = 7
	maximum = 77
Network latency average = 22.6298
	minimum = 7
	maximum = 77
Slowest packet = 5247
Flit latency average = 22.979
	minimum = 7
	maximum = 77
Slowest flit = 5247
Fragmentation average = 0
	minimum = 0
	maximum = 0
Injected packet rate average = 0.00983333
	minimum = 0.006 (at node 9)
	maximum = 0.0146667 (at node 6)
Accepted packet rate average = 0.00991667
	minimum = 0.006 (at node 5)
	maximum = 0.014 (at node 2)
Injected flit rate average = 0.00983333
	minimum = 0.006 (at node 9)
	maximum = 0.0146667 (at node 6)
Accepted flit rate average= 0.00991667
	minimum = 0.006 (at node 5)
	maximum = 0.014 (at node 2)
Injected packet length average = 1
Accepted packet length average = 1
Total in-flight flits = 1 (1 measured)
latency change    = 0.0339289
throughput change = 0.0651261
Class 0:
Packet latency average = 23.0442
	minimum = 7
	maximum = 77
Network latency average = 23.0442
	minimum = 7
	maximum = 77
Slowest packet = 5247
Flit latency average = 23.3
	minimum = 7
	maximum = 77
Slowest flit = 5247
Fragmentation average = 0
	minimum = 0
	maximum = 0
Injected packet rate average = 0.0099375
	minimum = 0.0065 (at node 14)
	maximum = 0.0155 (at node 11)
Accepted packet rate average = 0.01
	minimum = 0.007 (at node 4)
	maximum = 0.0125 (at node 2)
Injected flit rate average = 0.0099375
	minimum = 0.0065 (at node 14)
	maximum = 0.0155 (at node 11)
Accepted flit rate average= 0.01
	minimum = 0.007 (at node 4)
	maximum = 0.0125 (at node 2)
Injected packet length average = 1
Accepted packet length average = 1
Total in-flight flits = 1 (1 measured)
latency change    = 0.0179819
throughput change = 0.00833333
Class 0:
Packet latency average = 22.9588
	minimum = 7
	maximum = 77
Network latency average = 22.9588
	minimum = 7
	maximum = 77
Slowest packet = 5247
Flit latency average = 23.1688
	minimum = 7
	maximum = 77
Slowest flit = 5247
Fragmentation average = 0
	minimum = 0
	maximum = 0
Injected packet rate average = 0.00985
	minimum = 0.0072 (at node 0)
	maximum = 0.0148 (at node 11)
Accepted packet rate average = 0.009775
	minimum = 0.0076 (at node 5)
	maximum = 0.0116 (at node 7)
Injected flit rate average = 0.00985
	minimum = 0.0072 (at node 0)
	maximum = 0.0148 (at node 11)
Accepted flit rate average= 0.009775
	minimum = 0.0076 (at node 5)
	maximum = 0.0116 (at node 7)
Injected packet length average = 1
Accepted packet length average = 1
Total in-flight flits = 6 (6 measured)
latency change    = 0.00371976
throughput change = 0.0230179
Class 0:
Packet latency average = 23.1894
	minimum = 7
	maximum = 77
Network latency average = 23.1894
	minimum = 7
	maximum = 77
Slowest packet = 5247
Flit latency average = 23.3615
	minimum = 7
	maximum = 77
Slowest flit = 5247
Fragmentation average = 0
	minimum = 0
	maximum = 0
Injected packet rate average = 0.00983333
	minimum = 0.00733333 (at node 12)
	maximum = 0.015 (at node 7)
Accepted packet rate average = 0.00985417
	minimum = 0.007 (at node 14)
	maximum = 0.0123333 (at node 9)
Injected flit rate average = 0.00983333
	minimum = 0.00733333 (at node 12)
	maximum = 0.015 (at node 7)
Accepted flit rate average= 0.00985417
	minimum = 0.007 (at node 14)
	maximum = 0.0123333 (at node 9)
Injected packet length average = 1
Accepted packet length average = 1
Total in-flight flits = 2 (2 measured)
latency change    = 0.00994416
throughput change = 0.00803383
Draining all recorded packets ...
Draining remaining packets ...
Time taken is 4537 cycles
Class 0:
Packet latency average = 22.5921
	minimum = 7
	maximum = 67
Network latency average = 22.5921
	minimum = 7
	maximum = 67
Slowest packet = 5725
Flit latency average = 22.5921
	minimum = 7
	maximum = 67
Slowest flit = 5725
Fragmentation average = 0
	minimum = 0
	maximum = 0
Injected packet rate average = 0.01
	minimum = 0.002 (at node 0)
	maximum = 0.018 (at node 3)
Accepted packet rate average = 0.0095
	minimum = 0.002 (at node 10)
	maximum = 0.018 (at node 5)
Injected flit rate average = 0.01
	minimum = 0.002 (at node 0)
	maximum = 0.018 (at node 3)
Accepted flit rate average= 0.0095
	minimum = 0.002 (at node 10)
	maximum = 0.018 (at node 5)
Injected packet length average = 1
Accepted packet length average = 1
Total in-flight flits = 4 (0 measured)
latency change    = 1
throughput change = 1
Class 0:
Packet latency average = 21.6779
	minimum = 7
	maximum = 67
Network latency average = 21.6779
	minimum = 7
	maximum = 67
Slowest packet = 5725
Flit latency average = 21.6779
	minimum = 7
	maximum = 67
Slowest flit = 5725
Fragmentation average = 0
	minimum = 0
	maximum = 0
Injected packet rate average = 0.0094375
	minimum = 0.006 (at node 0)
	maximum = 0.014 (at node 3)
Accepted packet rate average = 0.0093125
	minimum = 0.007 (at node 8)
	maximum = 0.016 (at node 15)
Injected flit rate average = 0.0094375
	minimum = 0.006 (at node 0)
	maximum = 0.014 (at node 3)
Accepted flit rate average= 0.0093125
	minimum = 0.007 (at node 8)
	maximum = 0.016 (at node 15)
Injected packet length average = 1
Accepted packet length average = 1
Total in-flight flits = 2 (0 measured)
latency change    = 0.0421745
throughput change = 0.0201342
Class 0:
Packet latency average = 22.8592
	minimum = 7
	maximum = 63
Network latency average = 22.8592
	minimum = 7
	maximum = 63
Slowest packet = 5875
Flit latency average = 22.8592
	minimum = 7
	maximum = 63
Slowest flit = 5875
Fragmentation average = 0
	minimum = 0
	maximum = 0
Injected packet rate average = 0.009
	minimum = 0 (at node 6)
	maximum = 0.016 (at node 15)
Accepted packet rate average = 0.008875
	minimum = 0.004 (at node 13)
	maximum = 0.012 (at node 4)
Injected flit rate average = 0.009
	minimum = 0 (at node 6)
	maximum = 0.016 (at node 15)
Accepted flit rate average= 0.008875
	minimum = 0.004 (at node 13)
	maximum = 0.012 (at node 4)
Injected packet length average = 1
Accepted packet length average = 1
Total in-flight flits = 3 (0 measured)
latency change    = 0.0516774
throughput change = 0.0492958
Warmed up ...Time used is 1500 cycles
Class 0:
Packet latency average = 20.0375
	minimum = 7
	maximum = 47
Network latency average = 20.0375
	minimum = 7
	maximum = 47
Slowest packet = 5941
Flit latency average = 20.2892
	minimum = 7
	maximum = 47
Slowest flit = 5941
Fragmentation average = 0
	minimum = 0
	maximum = 0
Injected packet rate average = 0.010875
	minimum = 0.002 (at node 15)
	maximum = 0.022 (at node 7)
Accepted packet rate average = 0.010375
	minimum = 0.002 (at node 13)
	maximum = 0.016 (at node 2)
Injected flit rate average = 0.010875
	minimum = 0.002 (at node 15)
	maximum = 0.022 (at node 7)
Accepted flit rate average= 0.010375
	minimum = 0.002 (at node 13)
	maximum = 0.016 (at node 2)
Injected packet length average = 1
Accepted packet length average = 1
Total in-flight flits = 7 (7 measured)
latency change    = 0.140819
throughput change = 0.144578
Class 0:
Packet latency average = 21.4557
	minimum = 7
	maximum = 77
Network latency average = 21.4557
	minimum = 7
	maximum = 77
Slowest packet = 6021
Flit latency average = 21.559
	minimum = 7
	maximum = 77
Slowest flit = 6021
Fragmentation average = 0
	minimum = 0
	maximum = 0
Injected packet rate average = 0.0100625
	minimum = 0.005 (at node 11)
	maximum = 0.017 (at node 7)
Accepted packet rate average = 0.0100625
	minimum = 0.006 (at node 7)
	maximum = 0.014 (at node 4)
Injected flit rate average = 0.0100625
	minimum = 0.005 (at node 11)
	maximum = 0.017 (at node 7)
Accepted flit rate average= 0.0100625
	minimum = 0.006 (at node 7)
	maximum = 0.014 (at node 4)
Injected packet length average = 1
Accepted packet length average = 1
Total in-flight flits = 3 (3 measured)
latency change    = 0.0660988
throughput change = 0.0310559
Class 0:
Packet latency average = 22.0515
	minimum = 7
	maximum = 77
Network latency average = 22.0515
	minimum = 7
	maximum = 77
Slowest packet = 6021
Flit latency average = 22.1144
	minimum = 7
	maximum = 77
Slowest flit = 6021
Fragmentation average = 0
	minimum = 0
	maximum = 0
Injected packet rate average = 0.00975
	minimum = 0.00666667 (at node 11)
	maximum = 0.0153333 (at node 7)
Accepted packet rate average = 0.00983333
	minimum = 0.006 (at node 9)
	maximum = 0.0133333 (at node 3)
Injected flit rate average = 0.00975
	minimum = 0.00666667 (at node 11)
	maximum = 0.0153333 (at node 7)
Accepted flit rate average= 0.00983333
	minimum = 0.006 (at node 9)
	maximum = 0.0133333 (at node 3)
Injected packet length average = 1
Accepted packet length average = 1
Total in-flight flits = 1 (1 measured)
latency change    = 0.0270188
throughput change = 0.0233051
Class 0:
Packet latency average = 21.9269
	minimum = 7
	maximum = 77
Network latency average = 21.9269
	minimum = 7
	maximum = 77
Slowest packet = 6021
Flit latency average = 21.977
	minimum = 7
	maximum = 77
Slowest flit = 6021
Fragmentation average = 0
	minimum = 0
	maximum = 0
Injected packet rate average = 0.00953125
	minimum = 0.006 (at node 12)
	maximum = 0.013 (at node 0)
Accepted packet rate average = 0.0095
	minimum = 0.0055 (at node 15)
	maximum = 0.012 (at node 8)
Injected flit rate average = 0.00953125
	minimum = 0.006 (at node 12)
	maximum = 0.013 (at node 0)
Accepted flit rate average= 0.0095
	minimum = 0.0055 (at node 15)
	maximum = 0.012 (at node 8)
Injected packet length average = 1
Accepted packet length average = 1
Total in-flight flits = 4 (4 measured)
latency change    = 0.00568214
throughput change = 0.0350877
Class 0:
Packet latency average = 21.727
	minimum = 7
	maximum = 77
Network latency average = 21.727
	minimum = 7
	maximum = 77
Slowest packet = 6021
Flit latency average = 21.7694
	minimum = 7
	maximum = 77
Slowest flit = 6021
Fragmentation average = 0
	minimum = 0
	maximum = 0
Injected packet rate average = 0.0093
	minimum = 0.006 (at node 13)
	maximum = 0.0132 (at node 0)
Accepted packet rate average = 0.009325
	minimum = 0.006 (at node 15)
	maximum = 0.012 (at node 11)
Injected flit rate average = 0.0093
	minimum = 0.006 (at node 13)
	maximum = 0.0132 (at node 0)
Accepted flit rate average= 0.009325
	minimum = 0.006 (at node 15)
	maximum = 0.012 (at node 11)
Injected packet length average = 1
Accepted packet length average = 1
Total in-flight flits = 2 (2 measured)
latency change    = 0.00919975
throughput change = 0.0187668
Draining all recorded packets ...
Draining remaining packets ...
Time taken is 4057 cycles
Class 0:
Packet latency average = 21.4884
	minimum = 7
	maximum = 77
Network latency average = 21.4884
	minimum = 7
	maximum = 77
Slowest packet = 6317
Flit latency average = 21.4884
	minimum = 7
	maximum = 77
Slowest flit = 6317
Fragmentation average = 0
	minimum = 0
	maximum = 0
Injected packet rate average = 0.01175
	minimum = 0.002 (at node 14)
	maximum = 0.02 (at node 0)
Accepted packet rate average = 0.01075
	minimum = 0.006 (at node 0)
	maximum = 0.02 (at node 10)
Injected flit rate average = 0.01175
	minimum = 0.002 (at node 14)
	maximum = 0.02 (at node 0)
Accepted flit rate average= 0.01075
	minimum = 0.006 (at node 0)
	maximum = 0.02 (at node 10)
Injected packet length average = 1
Accepted packet length average = 1
Total in-flight flits = 8 (0 measured)
latency change    = 1
throughput change = 1
Class 0:
Packet latency average = 21.1553
	minimum = 7
	maximum = 77
Network latency average = 21.1553
	minimum = 7
	maximum = 77
Slowest packet = 6317
Flit latency average = 21.1553
	minimum = 7
	maximum = 77
Slowest flit = 6317
Fragmentation average = 0
	minimum = 0
	maximum = 0
Injected packet rate average = 0.0103125
	minimum = 0.002 (at node 13)
	maximum = 0.015 (at node 0)
Accepted packet rate average = 0.0100625
	minimum = 0.004 (at node 0)
	maximum = 0.017 (at node 10)
Injected flit rate average = 0.0103125
	minimum = 0.002 (at node 13)
	maximum = 0.015 (at node 0)
Accepted flit rate average= 0.0100625
	minimum = 0.004 (at node 0)
	maximum = 0.017 (at node 10)
Injected packet length average = 1
Accepted packet length average = 1
Total in-flight flits = 4 (0 measured)
latency change    = 0.0157451
throughput change = 0.068323
Class 0:
Packet latency average = 22.4286
	minimum = 7
	maximum = 72
Network latency average = 22.4286
	minimum = 7
	maximum = 72
Slowest packet = 6441
Flit latency average = 22.4286
	minimum = 7
	maximum = 72
Slowest flit = 6441
Fragmentation average = 0
	minimum = 0
	maximum = 0
Injected packet rate average = 0.00875
	minimum = 0.002 (at node 2)
	maximum = 0.02 (at node 13)
Accepted packet rate average = 0.00875
	minimum = 0.002 (at node 10)
	maximum = 0.016 (at node 1)
Injected flit rate average = 0.00875
	minimum = 0.002 (at node 2)
	maximum = 0.02 (at node 13)
Accepted flit rate average= 0.00875
	minimum = 0.002 (at node 10)
	maximum = 0.016 (at node 1)
Injected packet length average = 1
Accepted packet length average = 1
Total in-flight flits = 4 (0 measured)
latency change    = 0.056771
throughput change = 0.15
Warmed up ...Time used is 1500 cycles
Class 0:
Packet latency average = 23.1711
	minimum = 7
	maximum = 52
Network latency average = 23.1711
	minimum = 7
	maximum = 52
Slowest packet = 6523
Flit latency average = 23.8875
	minimum = 7
	maximum = 54
Slowest flit = 6504
Fragmentation average = 0
	minimum = 0
	maximum = 0
Injected packet rate average = 0.00975
	minimum = 0.002 (at node 13)
	maximum = 0.018 (at node 8)
Accepted packet rate average = 0.01
	minimum = 0.006 (at node 2)
	maximum = 0.018 (at node 3)
Injected flit rate average = 0.00975
	minimum = 0.002 (at node 13)
	maximum = 0.018 (at node 8)
Accepted flit rate average= 0.01
	minimum = 0.006 (at node 2)
	maximum = 0.018 (at node 3)
Injected packet length average = 1
Accepted packet length average = 1
Total in-flight flits = 2 (2 measured)
latency change    = 0.0320435
throughput change = 0.125
Class 0:
Packet latency average = 22.6667
	minimum = 7
	maximum = 53
Network latency average = 22.6667
	minimum = 7
	maximum = 53
Slowest packet = 6643
Flit latency average = 23.0676
	minimum = 7
	maximum = 54
Slowest flit = 6504
Fragmentation average = 0
	minimum = 0
	maximum = 0
Injected packet rate average = 0.0093125
	minimum = 0.004 (at node 13)
	maximum = 0.015 (at node 8)
Accepted packet rate average = 0.00925
	minimum = 0.007 (at node 2)
	maximum = 0.014 (at node 4)
Injected flit rate average = 0.0093125
	minimum = 0.004 (at node 13)
	maximum = 0.015 (at node 8)
Accepted flit rate average= 0.00925
	minimum = 0.007 (at node 2)
	maximum = 0.014 (at node 4)
Injected packet length average = 1
Accepted packet length average = 1
Total in-flight flits = 5 (5 measured)
latency change    = 0.0222523
throughput change = 0.0810811
Class 0:
Packet latency average = 23.0991
	minimum = 7
	maximum = 77
Network latency average = 23.0991
	minimum = 7
	maximum = 77
Slowest packet = 6729
Flit latency average = 23.3432
	minimum = 7
	maximum = 77
Slowest flit = 6729
Fragmentation average = 0
	minimum = 0
	maximum = 0
Injected packet rate average = 0.00991667
	minimum = 0.006 (at node 13)
	maximum = 0.014 (at node 8)
Accepted packet rate average = 0.00983333
	minimum = 0.006 (at node 9)
	maximum = 0.0133333 (at node 3)
Injected flit rate average = 0.00991667
	minimum = 0.006 (at node 13)
	maximum = 0.014 (at node 8)
Accepted flit rate average= 0.00983333
	minimum = 0.006 (at node 9)
	maximum = 0.0133333 (at node 3)
Injected packet length average = 1
Accepted packet length average = 1
Total in-flight flits = 6 (6 measured)
latency change    = 0.0187224
throughput change = 0.059322
Class 0:
Packet latency average = 23.6117
	minimum = 7
	maximum = 77
Network latency average = 23.6117
	minimum = 7
	maximum = 77
Slowest packet = 6729
Flit latency average = 23.7891
	minimum = 7
	maximum = 77
Slowest flit = 6729
Fragmentation average = 0
	minimum = 0
	maximum = 0
Injected packet rate average = 0.00971875
	minimum = 0.0055 (at node 13)
	maximum = 0.0135 (at node 8)
Accepted packet rate average = 0.00978125
	minimum = 0.005 (at node 9)
	maximum = 0.014 (at node 14)
Injected flit rate average = 0.00971875
	minimum = 0.0055 (at node 13)
	maximum = 0.0135 (at node 8)
Accepted flit rate average= 0.00978125
	minimum = 0.005 (at node 9)
	maximum = 0.014 (at node 14)
Injected packet length average = 1
Accepted packet length average = 1
Total in-flight flits = 2 (2 measured)
latency change    = 0.0217059
throughput change = 0.00532481
Class 0:
Packet latency average = 23.2122
	minimum = 7
	maximum = 77
Network latency average = 23.2122
	minimum = 7
	maximum = 77
Slowest packet = 6729
Flit latency average = 23.3622
	minimum = 7
	maximum = 77
Slowest flit = 6729
Fragmentation average = 0
	minimum = 0
	maximum = 0
Injected packet rate average = 0.009525
	minimum = 0.0068 (at node 12)
	maximum = 0.0128 (at node 8)
Accepted packet rate average = 0.009525
	minimum = 0.0056 (at node 9)
	maximum = 0.014 (at node 14)
Injected flit rate average = 0.009525
	minimum = 0.0068 (at node 12)
	maximum = 0.0128 (at node 8)
Accepted flit rate average= 0.009525
	minimum = 0.0056 (at node 9)
	maximum = 0.014 (at node 14)
Injected packet length average = 1
Accepted packet length average = 1
Total in-flight flits = 4 (4 measured)
latency change    = 0.0172086
throughput change = 0.0269029
Class 0:
Packet latency average = 22.8433
	minimum = 7
	maximum = 89
Network latency average = 22.8433
	minimum = 7
	maximum = 89
Slowest packet = 6952
Flit latency average = 22.9681
	minimum = 7
	maximum = 89
Slowest flit = 6952
Fragmentation average = 0
	minimum = 0
	maximum = 0
Injected packet rate average = 0.00983333
	minimum = 0.00733333 (at node 12)
	maximum = 0.013 (at node 14)
Accepted packet rate average = 0.00979167
	minimum = 0.00633333 (at node 9)
	maximum = 0.0146667 (at node 14)
Injected flit rate average = 0.00983333
	minimum = 0.00733333 (at node 12)
	maximum = 0.013 (at node 14)
Accepted flit rate average= 0.00979167
	minimum = 0.00633333 (at node 9)
	maximum = 0.0146667 (at node 14)
Injected packet length average = 1
Accepted packet length average = 1
Total in-flight flits = 6 (6 measured)
latency change    = 0.0161471
throughput change = 0.027234
Draining all recorded packets ...
Draining remaining packets ...
Time taken is 4555 cycles
Class 0:
Packet latency average = 24.0649
	minimum = 7
	maximum = 77
Network latency average = 24.0649
	minimum = 7
	maximum = 77
Slowest packet = 6998
Flit latency average = 24.0649
	minimum = 7
	maximum = 77
Slowest flit = 6998
Fragmentation average = 0
	minimum = 0
	maximum = 0
Injected packet rate average = 0.009875
	minimum = 0.004 (at node 15)
	maximum = 0.014 (at node 4)
Accepted packet rate average = 0.009625
	minimum = 0.002 (at node 0)
	maximum = 0.016 (at node 1)
Injected flit rate average = 0.009875
	minimum = 0.004 (at node 15)
	maximum = 0.014 (at node 4)
Accepted flit rate average= 0.009625
	minimum = 0.002 (at node 0)
	maximum = 0.016 (at node 1)
Injected packet length average = 1
Accepted packet length average = 1
Total in-flight flits = 2 (0 measured)
latency change    = 1
throughput change = 1
Class 0:
Packet latency average = 22.1333
	minimum = 7
	maximum = 77
Network latency average = 22.1333
	minimum = 7
	maximum = 77
Slowest packet = 6998
Flit latency average = 22.1333
	minimum = 7
	maximum = 77
Slowest flit = 6998
Fragmentation average = 0
	minimum = 0
	maximum = 0
Injected packet rate average = 0.0095625
	minimum = 0.007 (at node 15)
	maximum = 0.014 (at node 8)
Accepted packet rate average = 0.009375
	minimum = 0.003 (at node 6)
	maximum = 0.013 (at node 4)
Injected flit rate average = 0.0095625
	minimum = 0.007 (at node 15)
	maximum = 0.014 (at node 8)
Accepted flit rate average= 0.009375
	minimum = 0.003 (at node 6)
	maximum = 0.013 (at node 4)
Injected packet length average = 1
Accepted packet length average = 1
Total in-flight flits = 3 (0 measured)
latency change    = 0.0872712
throughput change = 0.0266667
Class 0:
Packet latency average = 22.6977
	minimum = 7
	maximum = 62
Network latency average = 22.6977
	minimum = 7
	maximum = 62
Slowest packet = 7127
Flit latency average = 22.6977
	minimum = 7
	maximum = 62
Slowest flit = 7127
Fragmentation average = 0
	minimum = 0
	maximum = 0
Injected packet rate average = 0.011
	minimum = 0.002 (at node 6)
	maximum = 0.022 (at node 15)
Accepted packet rate average = 0.01075
	minimum = 0.002 (at node 6)
	maximum = 0.026 (at node 4)
Injected flit rate average = 0.011
	minimum = 0.002 (at node 6)
	maximum = 0.022 (at node 15)
Accepted flit rate average= 0.01075
	minimum = 0.002 (at node 6)
	maximum = 0.026 (at node 4)
Injected packet length average = 1
Accepted packet length average = 1
Total in-flight flits = 5 (0 measured)
latency change    = 0.0248634
throughput change = 0.127907
Warmed up ...Time used is 1500 cycles
Class 0:
Packet latency average = 24.0667
	minimum = 7
	maximum = 75
Network latency average = 24.0667
	minimum = 7
	maximum = 75
Slowest packet = 7226
Flit latency average = 24.25
	minimum = 7
	maximum = 75
Slowest flit = 7226
Fragmentation average = 0
	minimum = 0
	maximum = 0
Injected packet rate average = 0.009625
	minimum = 0.002 (at node 15)
	maximum = 0.018 (at node 3)
Accepted packet rate average = 0.01
	minimum = 0 (at node 11)
	maximum = 0.014 (at node 3)
Injected flit rate average = 0.009625
	minimum = 0.002 (at node 15)
	maximum = 0.018 (at node 3)
Accepted flit rate average= 0.01
	minimum = 0 (at node 11)
	maximum = 0.014 (at node 3)
Injected packet length average = 1
Accepted packet length average = 1
Total in-flight flits = 2 (2 measured)
latency change    = 0.0568833
throughput change = 0.075
Class 0:
Packet latency average = 23.2157
	minimum = 7
	maximum = 75
Network latency average = 23.2157
	minimum = 7
	maximum = 75
Slowest packet = 7226
Flit latency average = 23.3354
	minimum = 7
	maximum = 75
Slowest flit = 7226
Fragmentation average = 0
	minimum = 0
	maximum = 0
Injected packet rate average = 0.00975
	minimum = 0.005 (at node 13)
	maximum = 0.014 (at node 1)
Accepted packet rate average = 0.009875
	minimum = 0.006 (at node 11)
	maximum = 0.014 (at node 10)
Injected flit rate average = 0.00975
	minimum = 0.005 (at node 13)
	maximum = 0.014 (at node 1)
Accepted flit rate average= 0.009875
	minimum = 0.006 (at node 11)
	maximum = 0.014 (at node 10)
Injected packet length average = 1
Accepted packet length average = 1
Total in-flight flits = 3 (3 measured)
latency change    = 0.0366554
throughput change = 0.0126582
Class 0:
Packet latency average = 23.3802
	minimum = 7
	maximum = 77
Network latency average = 23.3802
	minimum = 7
	maximum = 77
Slowest packet = 7441
Flit latency average = 23.4534
	minimum = 7
	maximum = 77
Slowest flit = 7441
Fragmentation average = 0
	minimum = 0
	maximum = 0
Injected packet rate average = 0.0102917
	minimum = 0.00666667 (at node 10)
	maximum = 0.0153333 (at node 4)
Accepted packet rate average = 0.0102917
	minimum = 0.00666667 (at node 9)
	maximum = 0.0153333 (at node 3)
[...]
Packet latency average = 21.6329
	minimum = 7
	maximum = 72
Network latency average = 21.6329
	minimum = 7
	maximum = 72
Slowest packet = 31849
Flit latency average = 21.5723
	minimum = 7
	maximum = 72
Slowest flit = 31849
Fragmentation average = 0
	minimum = 0
	maximum = 0
Injected packet rate average = 0.0100625
	minimum = 0.006 (at node 0)
	maximum = 0.015 (at node 1)
Accepted packet rate average = 0.0099375
	minimum = 0.004 (at node 14)
	maximum = 0.017 (at node 6)
Injected flit rate average = 0.0100625
	minimum = 0.006 (at node 0)
	maximum = 0.015 (at node 1)
Accepted flit rate average= 0.0099375
	minimum = 0.004 (at node 14)
	maximum = 0.017 (at node 6)
Injected packet length average = 1
Accepted packet length average = 1
Total in-flight flits = 3 (3 measured)
latency change    = 0.0724416
throughput change = 0.0314465
Class 0:
Packet latency average = 21.9304
	minimum = 7
	maximum = 72
Network latency average = 21.9304
	minimum = 7
	maximum = 72
Slowest packet = 31849
Flit latency average = 21.8874
	minimum = 7
	maximum = 72
Slowest flit = 31849
Fragmentation average = 0
	minimum = 0
	maximum = 0
Injected packet rate average = 0.00966667
	minimum = 0.006 (at node 0)
	maximum = 0.014 (at node 2)
Accepted packet rate average = 0.009625
	minimum = 0.00333333 (at node 14)
	maximum = 0.014 (at node 10)
Injected flit rate average = 0.00966667
	minimum = 0.006 (at node 0)
	maximum = 0.014 (at node 2)
Accepted flit rate average= 0.009625
	minimum = 0.00333333 (at node 14)
	maximum = 0.014 (at node 10)
Injected packet length average = 1
Accepted packet length average = 1
Total in-flight flits = 2 (2 measured)
latency change    = 0.0135667
throughput change = 0.0324675
Class 0:
Packet latency average = 22.429
	minimum = 7
	maximum = 86
Network latency average = 22.429
	minimum = 7
	maximum = 86
Slowest packet = 32061
Flit latency average = 22.3955
	minimum = 7
	maximum = 86
Slowest flit = 32061
Fragmentation average = 0
	minimum = 0
	maximum = 0
Injected packet rate average = 0.0098125
	minimum = 0.005 (at node 14)
	maximum = 0.013 (at node 2)
Accepted packet rate average = 0.00971875
	minimum = 0.004 (at node 14)
	maximum = 0.014 (at node 2)
Injected flit rate average = 0.0098125
	minimum = 0.005 (at node 14)
	maximum = 0.013 (at node 2)
Accepted flit rate average= 0.00971875
	minimum = 0.004 (at node 14)
	maximum = 0.014 (at node 2)
Injected packet length average = 1
Accepted packet length average = 1
Total in-flight flits = 4 (4 measured)
latency change    = 0.02223
throughput change = 0.0096463
Class 0:
Packet latency average = 22.5215
	minimum = 7
	maximum = 86
Network latency average = 22.5215
	minimum = 7
	maximum = 86
Slowest packet = 32061
Flit latency average = 22.4949
	minimum = 7
	maximum = 86
Slowest flit = 32061
Fragmentation average = 0
	minimum = 0
	maximum = 0
Injected packet rate average = 0.00995
	minimum = 0.0056 (at node 5)
	maximum = 0.012 (at node 3)
Accepted packet rate average = 0.0099
	minimum = 0.004 (at node 14)
	maximum = 0.016 (at node 6)
Injected flit rate average = 0.00995
	minimum = 0.0056 (at node 5)
	maximum = 0.012 (at node 3)
Accepted flit rate average= 0.0099
	minimum = 0.004 (at node 14)
	maximum = 0.016 (at node 6)
Injected packet length average = 1
Accepted packet length average = 1
Total in-flight flits = 3 (3 measured)
latency change    = 0.00410659
throughput change = 0.0183081
Draining all recorded packets ...
Draining remaining packets ...
Time taken is 4066 cycles
Class 0:
Packet latency average = 22.7857
	minimum = 7
	maximum = 52
Network latency average = 22.7857
	minimum = 7
	maximum = 52
Slowest packet = 32202
Flit latency average = 22.7857
	minimum = 7
	maximum = 52
Slowest flit = 32202
Fragmentation average = 0
	minimum = 0
	maximum = 0
Injected packet rate average = 0.00925
	minimum = 0.006 (at node 2)
	maximum = 0.016 (at node 14)
Accepted packet rate average = 0.00875
	minimum = 0.002 (at node 9)
	maximum = 0.014 (at node 5)
Injected flit rate average = 0.00925
	minimum = 0.006 (at node 2)
	maximum = 0.016 (at node 14)
Accepted flit rate average= 0.00875
	minimum = 0.002 (at node 9)
	maximum = 0.014 (at node 5)
Injected packet length average = 1
Accepted packet length average = 1
Total in-flight flits = 4 (0 measured)
latency change    = 1
throughput change = 1
Class 0:
Packet latency average = 21.8105
	minimum = 7
	maximum = 68
Network latency average = 21.8105
	minimum = 7
	maximum = 68
Slowest packet = 32283
Flit latency average = 21.8105
	minimum = 7
	maximum = 68
Slowest flit = 32283
Fragmentation average = 0
	minimum = 0
	maximum = 0
Injected packet rate average = 0.00975
	minimum = 0.005 (at node 12)
	maximum = 0.014 (at node 2)
Accepted packet rate average = 0.0095625
	minimum = 0.003 (at node 3)
	maximum = 0.014 (at node 4)
Injected flit rate average = 0.00975
	minimum = 0.005 (at node 12)
	maximum = 0.014 (at node 2)
Accepted flit rate average= 0.0095625
	minimum = 0.003 (at node 3)
	maximum = 0.014 (at node 4)
Injected packet length average = 1
Accepted packet length average = 1
Total in-flight flits = 3 (0 measured)
latency change    = 0.0447151
throughput change = 0.0849673
Class 0:
Packet latency average = 21.7195
	minimum = 7
	maximum = 52
Network latency average = 21.7195
	minimum = 7
	maximum = 52
Slowest packet = 32370
Flit latency average = 21.7195
	minimum = 7
	maximum = 52
Slowest flit = 32370
Fragmentation average = 0
	minimum = 0
	maximum = 0
Injected packet rate average = 0.010125
	minimum = 0.004 (at node 4)
	maximum = 0.02 (at node 0)
Accepted packet rate average = 0.01025
	minimum = 0.006 (at node 0)
	maximum = 0.02 (at node 9)
Injected flit rate average = 0.010125
	minimum = 0.004 (at node 4)
	maximum = 0.02 (at node 0)
Accepted flit rate average= 0.01025
	minimum = 0.006 (at node 0)
	maximum = 0.02 (at node 9)
Injected packet length average = 1
Accepted packet length average = 1
Total in-flight flits = 2 (0 measured)
latency change    = 0.00418726
throughput change = 0.0670732
Warmed up ...Time used is 1500 cycles
Class 0:
Packet latency average = 23.2222
	minimum = 7
	maximum = 62
Network latency average = 23.2222
	minimum = 7
	maximum = 62
Slowest packet = 32490
Flit latency average = 23.2568
	minimum = 7
	maximum = 62
Slowest flit = 32490
Fragmentation average = 0
	minimum = 0
	maximum = 0
Injected packet rate average = 0.009375
	minimum = 0.004 (at node 8)
	maximum = 0.014 (at node 4)
Accepted packet rate average = 0.00925
	minimum = 0.004 (at node 3)
	maximum = 0.018 (at node 8)
Injected flit rate average = 0.009375
	minimum = 0.004 (at node 8)
	maximum = 0.014 (at node 4)
Accepted flit rate average= 0.00925
	minimum = 0.004 (at node 3)
	maximum = 0.018 (at node 8)
Injected packet length average = 1
Accepted packet length average = 1
Total in-flight flits = 3 (3 measured)
latency change    = 0.06471
throughput change = 0.108108
Class 0:
Packet latency average = 22.1941
	minimum = 7
	maximum = 62
Network latency average = 22.1941
	minimum = 7
	maximum = 62
Slowest packet = 32490
Flit latency average = 22.2209
	minimum = 7
	maximum = 62
Slowest flit = 32490
Fragmentation average = 0
	minimum = 0
	maximum = 0
Injected packet rate average = 0.01075
	minimum = 0.003 (at node 15)
	maximum = 0.017 (at node 1)
Accepted packet rate average = 0.01075
	minimum = 0.007 (at node 7)
	maximum = 0.017 (at node 12)
Injected flit rate average = 0.01075
	minimum = 0.003 (at node 15)
	maximum = 0.017 (at node 1)
Accepted flit rate average= 0.01075
	minimum = 0.007 (at node 7)
	maximum = 0.017 (at node 12)
Injected packet length average = 1
Accepted packet length average = 1
Total in-flight flits = 2 (2 measured)
latency change    = 0.0463233
throughput change = 0.139535
Class 0:
Packet latency average = 21.3262
	minimum = 7
	maximum = 62
Network latency average = 21.3262
	minimum = 7
	maximum = 62
Slowest packet = 32490
Flit latency average = 21.3532
	minimum = 7
	maximum = 62
Slowest flit = 32490
Fragmentation average = 0
	minimum = 0
	maximum = 0
Injected packet rate average = 0.009875
	minimum = 0.004 (at node 15)
	maximum = 0.0153333 (at node 13)
Accepted packet rate average = 0.00979167
	minimum = 0.00733333 (at node 2)
	maximum = 0.0126667 (at node 12)
Injected flit rate average = 0.009875
	minimum = 0.004 (at node 15)
	maximum = 0.0153333 (at node 13)
Accepted flit rate average= 0.00979167
	minimum = 0.00733333 (at node 2)
	maximum = 0.0126667 (at node 12)
Injected packet length average = 1
Accepted packet length average = 1
Total in-flight flits = 4 (4 measured)
latency change    = 0.0406982
throughput change = 0.0978723
Class 0:
Packet latency average = 21.544
	minimum = 7
	maximum = 62
Network latency average = 21.544
	minimum = 7
	maximum = 62
Slowest packet = 32490
Flit latency average = 21.5625
	minimum = 7
	maximum = 62
Slowest flit = 32490
Fragmentation average = 0
	minimum = 0
	maximum = 0
Injected packet rate average = 0.0100313
	minimum = 0.006 (at node 15)
	maximum = 0.0135 (at node 13)
Accepted packet rate average = 0.01
	minimum = 0.008 (at node 2)
	maximum = 0.013 (at node 0)
Injected flit rate average = 0.0100313
	minimum = 0.006 (at node 15)
	maximum = 0.0135 (at node 13)
Accepted flit rate average= 0.01
	minimum = 0.008 (at node 2)
	maximum = 0.013 (at node 0)
Injected packet length average = 1
Accepted packet length average = 1
Total in-flight flits = 3 (3 measured)
latency change    = 0.0101116
throughput change = 0.0208333
Class 0:
Packet latency average = 21.8987
	minimum = 7
	maximum = 77
Network latency average = 21.8987
	minimum = 7
	maximum = 77
Slowest packet = 32756
Flit latency average = 21.9118
	minimum = 7
	maximum = 77
Slowest flit = 32756
Fragmentation average = 0
	minimum = 0
	maximum = 0
Injected packet rate average = 0.01
	minimum = 0.0076 (at node 10)
	maximum = 0.0148 (at node 13)
Accepted packet rate average = 0.009925
	minimum = 0.0076 (at node 1)
	maximum = 0.0132 (at node 0)
Injected flit rate average = 0.01
	minimum = 0.0076 (at node 10)
	maximum = 0.0148 (at node 13)
Accepted flit rate average= 0.009925
	minimum = 0.0076 (at node 1)
	maximum = 0.0132 (at node 0)
Injected packet length average = 1
Accepted packet length average = 1
Total in-flight flits = 5 (5 measured)
latency change    = 0.0161977
throughput change = 0.00755668
Class 0:
Packet latency average = 21.785
	minimum = 7
	maximum = 77
Network latency average = 21.785
	minimum = 7
	maximum = 77
Slowest packet = 32756
Flit latency average = 21.796
	minimum = 7
	maximum = 77
Slowest flit = 32756
Fragmentation average = 0
	minimum = 0
	maximum = 0
Injected packet rate average = 0.0102917
	minimum = 0.008 (at node 2)
	maximum = 0.014 (at node 13)
Accepted packet rate average = 0.0103125
	minimum = 0.008 (at node 11)
	maximum = 0.0123333 (at node 0)
Injected flit rate average = 0.0102917
	minimum = 0.008 (at node 2)
	maximum = 0.014 (at node 13)
Accepted flit rate average= 0.0103125
	minimum = 0.008 (at node 11)
	maximum = 0.0123333 (at node 0)
Injected packet length average = 1
Accepted packet length average = 1
Total in-flight flits = 1 (1 measured)
latency change    = 0.00522122
throughput change = 0.0375758
Draining all recorded packets ...
Draining remaining packets ...
Time taken is 4513 cycles
Class 0:
Packet latency average = 21.9
	minimum = 7
	maximum = 69
Network latency average = 21.9
	minimum = 7
	maximum = 69
Slowest packet = 32948
Flit latency average = 21.9
	minimum = 7
	maximum = 69
Slowest flit = 32948
Fragmentation average = 0
	minimum = 0
	maximum = 0
Injected packet rate average = 0.0105
	minimum = 0.002 (at node 12)
	maximum = 0.02 (at node 3)
Accepted packet rate average = 0.01
	minimum = 0.002 (at node 6)
	maximum = 0.018 (at node 15)
Injected flit rate average = 0.0105
	minimum = 0.002 (at node 12)
	maximum = 0.02 (at node 3)
Accepted flit rate average= 0.01
	minimum = 0.002 (at node 6)
	maximum = 0.018 (at node 15)
Injected packet length average = 1
Accepted packet length average = 1
Total in-flight flits = 4 (0 measured)
latency change    = 1
throughput change = 1
Class 0:
Packet latency average = 21.8902
	minimum = 7
	maximum = 73
Network latency average = 21.8902
	minimum = 7
	maximum = 73
Slowest packet = 33011
Flit latency average = 21.8902
	minimum = 7
	maximum = 73
Slowest flit = 33011
Fragmentation average = 0
	minimum = 0
	maximum = 0
Injected packet rate average = 0.01025
	minimum = 0.004 (at node 8)
	maximum = 0.015 (at node 6)
Accepted packet rate average = 0.01025
	minimum = 0.006 (at node 6)
	maximum = 0.014 (at node 9)
Injected flit rate average = 0.01025
	minimum = 0.004 (at node 8)
	maximum = 0.015 (at node 6)
Accepted flit rate average= 0.01025
	minimum = 0.006 (at node 6)
	maximum = 0.014 (at node 9)
Injected packet length average = 1
Accepted packet length average = 1
Total in-flight flits = 0 (0 measured)
latency change    = 0.000445682
throughput change = 0.0243902
Class 0:
Packet latency average = 21.3158
	minimum = 7
	maximum = 64
Network latency average = 21.3158
	minimum = 7
	maximum = 64
Slowest packet = 33110
Flit latency average = 21.3158
	minimum = 7
	maximum = 64
Slowest flit = 33110
Fragmentation average = 0
	minimum = 0
	maximum = 0
Injected packet rate average = 0.009875
	minimum = 0.002 (at node 8)
	maximum = 0.018 (at node 10)
Accepted packet rate average = 0.0095
	minimum = 0.004 (at node 7)
	maximum = 0.02 (at node 8)
Injected flit rate average = 0.009875
	minimum = 0.002 (at node 8)
	maximum = 0.018 (at node 10)
Accepted flit rate average= 0.0095
	minimum = 0.004 (at node 7)
	maximum = 0.02 (at node 8)
Injected packet length average = 1
Accepted packet length average = 1
Total in-flight flits = 3 (0 measured)
latency change    = 0.0269497
throughput change = 0.0789474
Warmed up ...Time used is 1500 cycles
Class 0:
Packet latency average = 22.3951
	minimum = 7
	maximum = 57
Network latency average = 22.3951
	minimum = 7
	maximum = 57
Slowest packet = 33187
Flit latency average = 22.4405
	minimum = 7
	maximum = 57
Slowest flit = 33187
Fragmentation average = 0
	minimum = 0
	maximum = 0
Injected packet rate average = 0.011
	minimum = 0.002 (at node 7)
	maximum = 0.022 (at node 14)
Accepted packet rate average = 0.0105
	minimum = 0.002 (at node 4)
	maximum = 0.018 (at node 11)
Injected flit rate average = 0.011
	minimum = 0.002 (at node 7)
	maximum = 0.022 (at node 14)
Accepted flit rate average= 0.0105
	minimum = 0.002 (at node 4)
	maximum = 0.018 (at node 11)
Injected packet length average = 1
Accepted packet length average = 1
Total in-flight flits = 7 (7 measured)
latency change    = 0.0481924
throughput change = 0.0952381
Class 0:
Packet latency average = 21.7532
	minimum = 7
	maximum = 67
Network latency average = 21.7532
	minimum = 7
	maximum = 67
Slowest packet = 33293
Flit latency average = 21.7898
	minimum = 7
	maximum = 67
Slowest flit = 33293
Fragmentation average = 0
	minimum = 0
	maximum = 0
Injected packet rate average = 0.0099375
	minimum = 0.005 (at node 7)
	maximum = 0.018 (at node 6)
Accepted packet rate average = 0.0098125
	minimum = 0.006 (at node 4)
	maximum = 0.015 (at node 11)
Injected flit rate average = 0.0099375
	minimum = 0.005 (at node 7)
	maximum = 0.018 (at node 6)
Accepted flit rate average= 0.0098125
	minimum = 0.006 (at node 4)
	maximum = 0.015 (at node 11)
Injected packet length average = 1
Accepted packet length average = 1
Total in-flight flits = 5 (5 measured)
latency change    = 0.0295043
throughput change = 0.0700637
Class 0:
Packet latency average = 22.4291
	minimum = 7
	maximum = 72
Network latency average = 22.4291
	minimum = 7
	maximum = 72
Slowest packet = 33349
Flit latency average = 22.444
	minimum = 7
	maximum = 72
Slowest flit = 33349
Fragmentation average = 0
	minimum = 0
	maximum = 0
Injected packet rate average = 0.0105833
	minimum = 0.00666667 (at node 15)
	maximum = 0.0146667 (at node 10)
Accepted packet rate average = 0.0104167
	minimum = 0.006 (at node 4)
	maximum = 0.014 (at node 0)
Injected flit rate average = 0.0105833
	minimum = 0.00666667 (at node 15)
	maximum = 0.0146667 (at node 10)
Accepted flit rate average= 0.0104167
	minimum = 0.006 (at node 4)
	maximum = 0.014 (at node 0)
Injected packet length average = 1
Accepted packet length average = 1
Total in-flight flits = 7 (7 measured)
latency change    = 0.030135
throughput change = 0.058
Class 0:
Packet latency average = 22.15
	minimum = 7
	maximum = 72
Network latency average = 22.15
	minimum = 7
	maximum = 72
Slowest packet = 33349
Flit latency average = 22.1633
	minimum = 7
	maximum = 72
Slowest flit = 33349
Fragmentation average = 0
	minimum = 0
	maximum = 0
Injected packet rate average = 0.0106875
	minimum = 0.0065 (at node 15)
	maximum = 0.0155 (at node 14)
Accepted packet rate average = 0.0107188
	minimum = 0.008 (at node 8)
	maximum = 0.0135 (at node 11)
Injected flit rate average = 0.0106875
	minimum = 0.0065 (at node 15)
	maximum = 0.0155 (at node 14)
Accepted flit rate average= 0.0107188
	minimum = 0.008 (at node 8)
	maximum = 0.0135 (at node 11)
Injected packet length average = 1
Accepted packet length average = 1
Total in-flight flits = 2 (2 measured)
latency change    = 0.0126027
throughput change = 0.0281827
Class 0:
Packet latency average = 22.0983
	minimum = 7
	maximum = 77
Network latency average = 22.0983
	minimum = 7
	maximum = 77
Slowest packet = 33524
Flit latency average = 22.1095
	minimum = 7
	maximum = 77
Slowest flit = 33524
Fragmentation average = 0
	minimum = 0
	maximum = 0
Injected packet rate average = 0.010525
	minimum = 0.008 (at node 5)
	maximum = 0.0152 (at node 14)
Accepted packet rate average = 0.0105
	minimum = 0.0076 (at node 6)
	maximum = 0.0136 (at node 0)
Injected flit rate average = 0.010525
	minimum = 0.008 (at node 5)
	maximum = 0.0152 (at node 14)
Accepted flit rate average= 0.0105
	minimum = 0.0076 (at node 6)
	maximum = 0.0136 (at node 0)
Injected packet length average = 1
Accepted packet length average = 1
Total in-flight flits = 4 (4 measured)
latency change    = 0.00233858
throughput change = 0.0208333
Class 0:
Packet latency average = 22.039
	minimum = 7
	maximum = 77
Network latency average = 22.039
	minimum = 7
	maximum = 77
Slowest packet = 33524
Flit latency average = 22.049
	minimum = 7
	maximum = 77
Slowest flit = 33524
Fragmentation average = 0
	minimum = 0
	maximum = 0
Injected packet rate average = 0.0102083
	minimum = 0.00833333 (at node 2)
	maximum = 0.014 (at node 14)
Accepted packet rate average = 0.0102083
	minimum = 0.00733333 (at node 8)
	maximum = 0.013 (at node 0)
Injected flit rate average = 0.0102083
	minimum = 0.00833333 (at node 2)
	maximum = 0.014 (at node 14)
Accepted flit rate average= 0.0102083
	minimum = 0.00733333 (at node 8)
	maximum = 0.013 (at node 0)
Injected packet length average = 1
Accepted packet length average = 1
Total in-flight flits = 3 (3 measured)
latency change    = 0.002691
throughput change = 0.0285714
Draining all recorded packets ...
Draining remaining packets ...
Time taken is 4536 cycles
====== Overall Traffic Statistics ======
====== Traffic class 0 ======
Packet latency average = 22.352 (50 samples)
	minimum = 7 (50 samples)
	maximum = 77.64 (50 samples)
Network latency average = 22.352 (50 samples)
	minimum = 7 (50 samples)
	maximum = 77.64 (50 samples)
Flit latency average = 22.4131 (50 samples)
	minimum = 7 (50 samples)
	maximum = 77.74 (50 samples)
Fragmentation average = 0 (50 samples)
	minimum = 0 (50 samples)
	maximum = 0 (50 samples)
Injected packet rate average = 0.0100018 (50 samples)
	minimum = 0.0067219 (50 samples)
	maximum = 0.0135228 (50 samples)
Accepted packet rate average = 0.00999087 (50 samples)
	minimum = 0.00649667 (50 samples)
	maximum = 0.013799 (50 samples)
Injected flit rate average = 0.0100018 (50 samples)
	minimum = 0.0067219 (50 samples)
	maximum = 0.0135228 (50 samples)
Accepted flit rate average = 0.00999087 (50 samples)
	minimum = 0.00649667 (50 samples)
	maximum = 0.013799 (50 samples)
Injected packet size average = 1 (50 samples)
Accepted packet size average = 1 (50 samples)
Hops average = 4.04866 (50 samples)
Total run time 3.20411
