BEGIN Configuration File: /tmp/tmpkarwvgdy.cfg
topology = mesh;
k = 4;
n = 2;
routing_function = dor;
num_vcs = 4;
vc_buf_size = 4;
wait_for_tail_credit = 1;
vc_allocator = islip;
sw_allocator = islip;
alloc_iters = 1;
credit_delay = 2;
routing_delay = 1;
vc_alloc_delay = 1;
sw_alloc_delay = 1;
input_speedup = 2;
output_speedup = 1;
internal_speedup = 1.0;
traffic = hotspot;
packet_size = 1;
sim_type = latency;
injection_rate = 0.01;
warmup_periods = 3;
sample_period = 500;
sim_count = 50;
seed = 1;
link_failures = 0;
fail_seed = 303;

END Configuration File: /tmp/tmpkarwvgdy.cfg
Class 0:
Packet latency average = 19.5349
	minimum = 7
	maximum = 33
Network latency average = 19.5349
	minimum = 7
	maximum = 33
Slowest packet = 75
Flit latency average = 19.5349
	minimum = 7
	maximum = 33
Slowest flit = 75
Fragmentation average = 0
	minimum = 0
	maximum = 0
Injected packet rate average = 0.011125
	minimum = 0.006 (at node 1)
	maximum = 0.022 (at node 7)
Accepted packet rate average = 0.01075
	minimum = 0 (at node 0)
	maximum = 0.172 (at node 11)
Injected flit rate average = 0.011125
	minimum = 0.006 (at node 1)
	maximum = 0.022 (at node 7)
Accepted flit rate average= 0.01075
	minimum = 0 (at node 0)
	maximum = 0.172 (at node 11)
Injected packet length average = 1
Accepted packet length average = 1
Total in-flight flits = 3 (0 measured)
latency change    = 1
throughput change = 1
Class 0:
Packet latency average = 19.6964
	minimum = 7
	maximum = 33
Network latency average = 19.6964
	minimum = 7
	maximum = 33
Slowest packet = 75
Flit latency average = 19.6964
	minimum = 7
	maximum = 33
Slowest flit = 75
Fragmentation average = 0
	minimum = 0
	maximum = 0
Injected packet rate average = 0.0108125
	minimum = 0.006 (at node 2)
	maximum = 0.019 (at node 7)
Accepted packet rate average = 0.0105
	minimum = 0 (at node 0)
	maximum = 0.168 (at node 11)
Injected flit rate average = 0.0108125
	minimum = 0.006 (at node 2)
	maximum = 0.019 (at node 7)
Accepted flit rate average= 0.0105
	minimum = 0 (at node 0)
	maximum = 0.168 (at node 11)
Injected packet length average = 1
Accepted packet length average = 1
Total in-flight flits = 5 (0 measured)
latency change    = 0.00820173
throughput change = 0.0238095
Class 0:
Packet latency average = 21.1486
	minimum = 7
	maximum = 32
Network latency average = 21.1486
	minimum = 7
	maximum = 32
Slowest packet = 167
Flit latency average = 21.1486
	minimum = 7
	maximum = 32
Slowest flit = 167
Fragmentation average = 0
	minimum = 0
	maximum = 0
Injected packet rate average = 0.009
	minimum = 0.002 (at node 6)
	maximum = 0.026 (at node 12)
Accepted packet rate average = 0.00925
	minimum = 0 (at node 0)
	maximum = 0.148 (at node 11)
Injected flit rate average = 0.009
	minimum = 0.002 (at node 6)
	maximum = 0.026 (at node 12)
Accepted flit rate average= 0.00925
	minimum = 0 (at node 0)
	maximum = 0.148 (at node 11)
Injected packet length average = 1
Accepted packet length average = 1
Total in-flight flits = 3 (0 measured)
latency change    = 0.0686673
throughput change = 0.135135
Warmed up ...Time used is 1500 cycles
Class 0:
Packet latency average = 19.5049
	minimum = 7
	maximum = 33
Network latency average = 19.5049
	minimum = 7
	maximum = 33
Slowest packet = 264
Flit latency average = 19.6321
	minimum = 7
	maximum = 33
Slowest flit = 264
Fragmentation average = 0
	minimum = 0
	maximum = 0
Injected packet rate average = 0.0135
	minimum = 0.006 (at node 2)
	maximum = 0.026 (at node 8)
Accepted packet rate average = 0.01325
	minimum = 0 (at node 0)
	maximum = 0.212 (at node 11)
Injected flit rate average = 0.0135
	minimum = 0.006 (at node 2)
	maximum = 0.026 (at node 8)
Accepted flit rate average= 0.01325
	minimum = 0 (at node 0)
	maximum = 0.212 (at node 11)
Injected packet length average = 1
Accepted packet length average = 1
Total in-flight flits = 5 (5 measured)
latency change    = 0.0842762
throughput change = 0.301887
Class 0:
Packet latency average = 19.8526
	minimum = 7
	maximum = 33
Network latency average = 19.8526
	minimum = 7
	maximum = 33
Slowest packet = 264
Flit latency average = 19.9171
	minimum = 7
	maximum = 33
Slowest flit = 264
Fragmentation average = 0
	minimum = 0
	maximum = 0
Injected packet rate average = 0.0119375
	minimum = 0.007 (at node 0)
	maximum = 0.019 (at node 8)
Accepted packet rate average = 0.0120625
	minimum = 0 (at node 0)
	maximum = 0.193 (at node 11)
Injected flit rate average = 0.0119375
	minimum = 0.007 (at node 0)
	maximum = 0.019 (at node 8)
Accepted flit rate average= 0.0120625
	minimum = 0 (at node 0)
	maximum = 0.193 (at node 11)
Injected packet length average = 1
Accepted packet length average = 1
Total in-flight flits = 1 (1 measured)
latency change    = 0.0175179
throughput change = 0.0984456
Class 0:
Packet latency average = 19.7509
	minimum = 7
	maximum = 33
Network latency average = 19.7509
	minimum = 7
	maximum = 33
Slowest packet = 264
Flit latency average = 19.7985
	minimum = 7
	maximum = 33
Slowest flit = 264
Fragmentation average = 0
	minimum = 0
	maximum = 0
Injected packet rate average = 0.0112083
	minimum = 0.006 (at node 0)
	maximum = 0.0153333 (at node 8)
Accepted packet rate average = 0.0111667
	minimum = 0 (at node 0)
	maximum = 0.178667 (at node 11)
Injected flit rate average = 0.0112083
	minimum = 0.006 (at node 0)
	maximum = 0.0153333 (at node 8)
Accepted flit rate average= 0.0111667
	minimum = 0 (at node 0)
	maximum = 0.178667 (at node 11)
Injected packet length average = 1
Accepted packet length average = 1
Total in-flight flits = 4 (4 measured)
latency change    = 0.00514852
throughput change = 0.0802239
Class 0:
Packet latency average = 19.5471
	minimum = 7
	maximum = 33
Network latency average = 19.5471
	minimum = 7
	maximum = 33
Slowest packet = 264
Flit latency average = 19.586
	minimum = 7
	maximum = 33
Slowest flit = 264
Fragmentation average = 0
	minimum = 0
	maximum = 0
Injected packet rate average = 0.0106875
	minimum = 0.0055 (at node 0)
	maximum = 0.0135 (at node 8)
Accepted packet rate average = 0.0107188
	minimum = 0 (at node 0)
	maximum = 0.1715 (at node 11)
Injected flit rate average = 0.0106875
	minimum = 0.0055 (at node 0)
	maximum = 0.0135 (at node 8)
Accepted flit rate average= 0.0107188
	minimum = 0 (at node 0)
	maximum = 0.1715 (at node 11)
Injected packet length average = 1
Accepted packet length average = 1
Total in-flight flits = 2 (2 measured)
latency change    = 0.0104304
throughput change = 0.0417881
Class 0:
Packet latency average = 19.6053
	minimum = 7
	maximum = 33
Network latency average = 19.6053
	minimum = 7
	maximum = 33
Slowest packet = 264
Flit latency average = 19.6366
	minimum = 7
	maximum = 33
Slowest flit = 264
Fragmentation average = 0
	minimum = 0
	maximum = 0
Injected packet rate average = 0.010475
	minimum = 0.006 (at node 0)
	maximum = 0.0132 (at node 6)
Accepted packet rate average = 0.010525
	minimum = 0 (at node 0)
	maximum = 0.1684 (at node 11)
Injected flit rate average = 0.010475
	minimum = 0.006 (at node 0)
	maximum = 0.0132 (at node 6)
Accepted flit rate average= 0.010525
	minimum = 0 (at node 0)
	maximum = 0.1684 (at node 11)
Injected packet length average = 1
Accepted packet length average = 1
Total in-flight flits = 1 (1 measured)
latency change    = 0.00296881
throughput change = 0.0184086
Class 0:
Packet latency average = 19.766
	minimum = 7
	maximum = 33
Network latency average = 19.766
	minimum = 7
	maximum = 33
Slowest packet = 264
Flit latency average = 19.7913
	minimum = 7
	maximum = 33
Slowest flit = 264
Fragmentation average = 0
	minimum = 0
	maximum = 0
Injected packet rate average = 0.0105208
	minimum = 0.00733333 (at node 0)
	maximum = 0.0133333 (at node 14)
Accepted packet rate average = 0.0104792
	minimum = 0 (at node 0)
	maximum = 0.167667 (at node 11)
Injected flit rate average = 0.0105208
	minimum = 0.00733333 (at node 0)
	maximum = 0.0133333 (at node 14)
Accepted flit rate average= 0.0104792
	minimum = 0 (at node 0)
	maximum = 0.167667 (at node 11)
Injected packet length average = 1
Accepted packet length average = 1
Total in-flight flits = 5 (5 measured)
latency change    = 0.00813199
throughput change = 0.00437376
Draining all recorded packets ...
Draining remaining packets ...
Time taken is 4542 cycles
Class 0:
Packet latency average = 20.0375
	minimum = 7
	maximum = 33
Network latency average = 20.0375
	minimum = 7
	maximum = 33
Slowest packet = 770
Flit latency average = 20.0375
	minimum = 7
	maximum = 33
Slowest flit = 770
Fragmentation average = 0
	minimum = 0
	maximum = 0
Injected packet rate average = 0.010875
	minimum = 0 (at node 10)
	maximum = 0.02 (at node 1)
Accepted packet rate average = 0.01
	minimum = 0 (at node 0)
	maximum = 0.16 (at node 11)
Injected flit rate average = 0.010875
	minimum = 0 (at node 10)
	maximum = 0.02 (at node 1)
Accepted flit rate average= 0.01
	minimum = 0 (at node 0)
	maximum = 0.16 (at node 11)
Injected packet length average = 1
Accepted packet length average = 1
Total in-flight flits = 7 (0 measured)
latency change    = 1
throughput change = 1
Class 0:
Packet latency average = 19.4675
	minimum = 7
	maximum = 33
Network latency average = 19.4675
	minimum = 7
	maximum = 33
Slowest packet = 770
Flit latency average = 19.4675
	minimum = 7
	maximum = 33
Slowest flit = 770
Fragmentation average = 0
	minimum = 0
	maximum = 0
Injected packet rate average = 0.009875
	minimum = 0.003 (at node 5)
	maximum = 0.013 (at node 3)
Accepted packet rate average = 0.009625
	minimum = 0 (at node 0)
	maximum = 0.154 (at node 11)
Injected flit rate average = 0.009875
	minimum = 0.003 (at node 5)
	maximum = 0.013 (at node 3)
Accepted flit rate average= 0.009625
	minimum = 0 (at node 0)
	maximum = 0.154 (at node 11)
Injected packet length average = 1
Accepted packet length average = 1
Total in-flight flits = 4 (0 measured)
latency change    = 0.0292779
throughput change = 0.038961
Class 0:
Packet latency average = 20.6324
	minimum = 7
	maximum = 32
Network latency average = 20.6324
	minimum = 7
	maximum = 32
Slowest packet = 914
Flit latency average = 20.6324
	minimum = 7
	maximum = 32
Slowest flit = 914
Fragmentation average = 0
	minimum = 0
	maximum = 0
Injected packet rate average = 0.0085
	minimum = 0.002 (at node 15)
	maximum = 0.016 (at node 4)
Accepted packet rate average = 0.0085
	minimum = 0 (at node 0)
	maximum = 0.136 (at node 11)
Injected flit rate average = 0.0085
	minimum = 0.002 (at node 15)
	maximum = 0.016 (at node 4)
Accepted flit rate average= 0.0085
	minimum = 0 (at node 0)
	maximum = 0.136 (at node 11)
Injected packet length average = 1
Accepted packet length average = 1
Total in-flight flits = 4 (0 measured)
latency change    = 0.056456
throughput change = 0.132353
Warmed up ...Time used is 1500 cycles
Class 0:
Packet latency average = 18.7536
	minimum = 7
	maximum = 32
Network latency average = 18.7536
	minimum = 7
	maximum = 32
Slowest packet = 979
Flit latency average = 18.9315
	minimum = 7
	maximum = 32
Slowest flit = 975
Fragmentation average = 0
	minimum = 0
	maximum = 0
Injected packet rate average = 0.00925
	minimum = 0.004 (at node 1)
	maximum = 0.016 (at node 10)
Accepted packet rate average = 0.009125
	minimum = 0 (at node 0)
	maximum = 0.146 (at node 11)
Injected flit rate average = 0.00925
	minimum = 0.004 (at node 1)
	maximum = 0.016 (at node 10)
Accepted flit rate average= 0.009125
	minimum = 0 (at node 0)
	maximum = 0.146 (at node 11)
Injected packet length average = 1
Accepted packet length average = 1
Total in-flight flits = 5 (5 measured)
latency change    = 0.10018
throughput change = 0.0684932
Class 0:
Packet latency average = 18.2517
	minimum = 7
	maximum = 32
Network latency average = 18.2517
	minimum = 7
	maximum = 32
Slowest packet = 979
Flit latency average = 18.3537
	minimum = 7
	maximum = 32
Slowest flit = 975
Fragmentation average = 0
	minimum = 0
	maximum = 0
Injected packet rate average = 0.0090625
	minimum = 0.004 (at node 1)
	maximum = 0.014 (at node 9)
Accepted packet rate average = 0.0091875
	minimum = 0 (at node 0)
	maximum = 0.147 (at node 11)
Injected flit rate average = 0.0090625
	minimum = 0.004 (at node 1)
	maximum = 0.014 (at node 9)
Accepted flit rate average= 0.0091875
	minimum = 0 (at node 0)
	maximum = 0.147 (at node 11)
Injected packet length average = 1
Accepted packet length average = 1
Total in-flight flits = 2 (2 measured)
latency change    = 0.0274974
throughput change = 0.00680272
Class 0:
Packet latency average = 18.8919
	minimum = 7
	maximum = 32
Network latency average = 18.8919
	minimum = 7
	maximum = 32
Slowest packet = 979
Flit latency average = 18.9469
	minimum = 7
	maximum = 32
Slowest flit = 975
Fragmentation average = 0
	minimum = 0
	maximum = 0
Injected packet rate average = 0.009375
	minimum = 0.00466667 (at node 1)
	maximum = 0.0133333 (at node 4)
Accepted packet rate average = 0.00941667
	minimum = 0 (at node 0)
	maximum = 0.150667 (at node 11)
Injected flit rate average = 0.009375
	minimum = 0.00466667 (at node 1)
	maximum = 0.0133333 (at node 4)
Accepted flit rate average= 0.00941667
	minimum = 0 (at node 0)
	maximum = 0.150667 (at node 11)
Injected packet length average = 1
Accepted packet length average = 1
Total in-flight flits = 3 (3 measured)
latency change    = 0.0338846
throughput change = 0.0243363
Class 0:
Packet latency average = 19.2364
	minimum = 7
	maximum = 42
Network latency average = 19.2364
	minimum = 7
	maximum = 42
Slowest packet = 1216
Flit latency average = 19.2713
	minimum = 7
	maximum = 42
Slowest flit = 1216
Fragmentation average = 0
	minimum = 0
	maximum = 0
Injected packet rate average = 0.009875
	minimum = 0.0055 (at node 1)
	maximum = 0.013 (at node 4)
Accepted packet rate average = 0.00990625
	minimum = 0 (at node 0)
	maximum = 0.1585 (at node 11)
Injected flit rate average = 0.009875
	minimum = 0.0055 (at node 1)
	maximum = 0.013 (at node 4)
Accepted flit rate average= 0.00990625
	minimum = 0 (at node 0)
	maximum = 0.1585 (at node 11)
Injected packet length average = 1
Accepted packet length average = 1
Total in-flight flits = 3 (3 measured)
latency change    = 0.0179103
throughput change = 0.0494217
Draining all recorded packets ...
Draining remaining packets ...
Time taken is 3545 cycles
Class 0:
Packet latency average = 19.2093
	minimum = 7
	maximum = 35
Network latency average = 19.2093
	minimum = 7
	maximum = 35
Slowest packet = 1361
Flit latency average = 19.2093
	minimum = 7
	maximum = 35
Slowest flit = 1361
Fragmentation average = 0
	minimum = 0
	maximum = 0
Injected packet rate average = 0.01125
	minimum = 0.004 (at node 5)
	maximum = 0.02 (at node 7)
Accepted packet rate average = 0.01075
	minimum = 0 (at node 0)
	maximum = 0.172 (at node 11)
Injected flit rate average = 0.01125
	minimum = 0.004 (at node 5)
	maximum = 0.02 (at node 7)
Accepted flit rate average= 0.01075
	minimum = 0 (at node 0)
	maximum = 0.172 (at node 11)
Injected packet length average = 1
Accepted packet length average = 1
Total in-flight flits = 4 (0 measured)
latency change    = 1
throughput change = 1
Class 0:
Packet latency average = 19.125
	minimum = 7
	maximum = 35
Network latency average = 19.125
	minimum = 7
	maximum = 35
Slowest packet = 1361
Flit latency average = 19.125
	minimum = 7
	maximum = 35
Slowest flit = 1361
Fragmentation average = 0
	minimum = 0
	maximum = 0
Injected packet rate average = 0.010125
	minimum = 0.007 (at node 5)
	maximum = 0.013 (at node 7)
Accepted packet rate average = 0.01
	minimum = 0 (at node 0)
	maximum = 0.16 (at node 11)
Injected flit rate average = 0.010125
	minimum = 0.007 (at node 5)
	maximum = 0.013 (at node 7)
Accepted flit rate average= 0.01
	minimum = 0 (at node 0)
	maximum = 0.16 (at node 11)
Injected packet length average = 1
Accepted packet length average = 1
Total in-flight flits = 2 (0 measured)
latency change    = 0.00440796
throughput change = 0.075
Class 0:
Packet latency average = 21.2571
	minimum = 7
	maximum = 33
Network latency average = 21.2571
	minimum = 7
	maximum = 33
Slowest packet = 1506
Flit latency average = 21.2571
	minimum = 7
	maximum = 33
Slowest flit = 1506
Fragmentation average = 0
	minimum = 0
	maximum = 0
Injected packet rate average = 0.00925
	minimum = 0.002 (at node 15)
	maximum = 0.018 (at node 14)
Accepted packet rate average = 0.00875
	minimum = 0 (at node 0)
	maximum = 0.14 (at node 11)
Injected flit rate average = 0.00925
	minimum = 0.002 (at node 15)
	maximum = 0.018 (at node 14)
Accepted flit rate average= 0.00875
	minimum = 0 (at node 0)
	maximum = 0.14 (at node 11)
Injected packet length average = 1
Accepted packet length average = 1
Total in-flight flits = 6 (0 measured)
latency change    = 0.100302
throughput change = 0.142857
Warmed up ...Time used is 1500 cycles
Class 0:
Packet latency average = 19.5349
	minimum = 7
	maximum = 33
Network latency average = 19.5349
	minimum = 7
	maximum = 33
Slowest packet = 1537
Flit latency average = 19.4783
	minimum = 7
	maximum = 33
Slowest flit = 1537
Fragmentation average = 0
	minimum = 0
	maximum = 0
Injected packet rate average = 0.011
	minimum = 0.004 (at node 11)
	maximum = 0.02 (at node 2)
Accepted packet rate average = 0.0115
	minimum = 0 (at node 0)
	maximum = 0.184 (at node 11)
Injected flit rate average = 0.011
	minimum = 0.004 (at node 11)
	maximum = 0.02 (at node 2)
Accepted flit rate average= 0.0115
	minimum = 0 (at node 0)
	maximum = 0.184 (at node 11)
Injected packet length average = 1
Accepted packet length average = 1
Total in-flight flits = 2 (2 measured)
latency change    = 0.0881633
throughput change = 0.23913
Class 0:
Packet latency average = 19.1471
	minimum = 7
	maximum = 33
Network latency average = 19.1471
	minimum = 7
	maximum = 33
Slowest packet = 1537
Flit latency average = 19.1307
	minimum = 7
	maximum = 33
Slowest flit = 1537
Fragmentation average = 0
	minimum = 0
	maximum = 0
Injected packet rate average = 0.010875
	minimum = 0.006 (at node 8)
	maximum = 0.018 (at node 6)
Accepted packet rate average = 0.011
	minimum = 0 (at node 0)
	maximum = 0.176 (at node 11)
Injected flit rate average = 0.010875
	minimum = 0.006 (at node 8)
	maximum = 0.018 (at node 6)
Accepted flit rate average= 0.011
	minimum = 0 (at node 0)
	maximum = 0.176 (at node 11)
Injected packet length average = 1
Accepted packet length average = 1
Total in-flight flits = 4 (4 measured)
latency change    = 0.0202551
throughput change = 0.0454545
Class 0:
Packet latency average = 19.1303
	minimum = 7
	maximum = 33
Network latency average = 19.1303
	minimum = 7
	maximum = 33
Slowest packet = 1537
Flit latency average = 19.1189
	minimum = 7
	maximum = 33
Slowest flit = 1537
Fragmentation average = 0
	minimum = 0
	maximum = 0
Injected packet rate average = 0.010125
	minimum = 0.00533333 (at node 0)
	maximum = 0.0166667 (at node 6)
Accepted packet rate average = 0.0101667
	minimum = 0 (at node 0)
	maximum = 0.162667 (at node 11)
Injected flit rate average = 0.010125
	minimum = 0.00533333 (at node 0)
	maximum = 0.0166667 (at node 6)
Accepted flit rate average= 0.0101667
	minimum = 0 (at node 0)
	maximum = 0.162667 (at node 11)
Injected packet length average = 1
Accepted packet length average = 1
Total in-flight flits = 5 (5 measured)
latency change    = 0.000878542
throughput change = 0.0819672
Class 0:
Packet latency average = 19.4516
	minimum = 7
	maximum = 34
Network latency average = 19.4516
	minimum = 7
	maximum = 34
Slowest packet = 1839
Flit latency average = 19.4367
	minimum = 7
	maximum = 34
Slowest flit = 1839
Fragmentation average = 0
	minimum = 0
	maximum = 0
Injected packet rate average = 0.00978125
	minimum = 0.0065 (at node 0)
	maximum = 0.0145 (at node 6)
Accepted packet rate average = 0.009875
	minimum = 0 (at node 0)
	maximum = 0.158 (at node 11)
Injected flit rate average = 0.00978125
	minimum = 0.0065 (at node 0)
	maximum = 0.0145 (at node 6)
Accepted flit rate average= 0.009875
	minimum = 0 (at node 0)
	maximum = 0.158 (at node 11)
Injected packet length average = 1
Accepted packet length average = 1
Total in-flight flits = 3 (3 measured)
latency change    = 0.016521
throughput change = 0.0295359
Class 0:
Packet latency average = 19.4545
	minimum = 7
	maximum = 34
Network latency average = 19.4545
	minimum = 7
	maximum = 34
Slowest packet = 1839
Flit latency average = 19.4421
	minimum = 7
	maximum = 34
Slowest flit = 1839
Fragmentation average = 0
	minimum = 0
	maximum = 0
Injected packet rate average = 0.00945
	minimum = 0.006 (at node 0)
	maximum = 0.014 (at node 9)
Accepted packet rate average = 0.0095
	minimum = 0 (at node 0)
	maximum = 0.152 (at node 11)
Injected flit rate average = 0.00945
	minimum = 0.006 (at node 0)
	maximum = 0.014 (at node 9)
Accepted flit rate average= 0.0095
	minimum = 0 (at node 0)
	maximum = 0.152 (at node 11)
Injected packet length average = 1
Accepted packet length average = 1
Total in-flight flits = 4 (4 measured)
latency change    = 0.000150739
throughput change = 0.0394737
Class 0:
Packet latency average = 19.5461
	minimum = 7
	maximum = 34
Network latency average = 19.5461
	minimum = 7
	maximum = 34
Slowest packet = 1839
Flit latency average = 19.5344
	minimum = 7
	maximum = 34
Slowest flit = 1839
Fragmentation average = 0
	minimum = 0
	maximum = 0
Injected packet rate average = 0.00933333
	minimum = 0.005 (at node 0)
	maximum = 0.013 (at node 9)
Accepted packet rate average = 0.00939583
	minimum = 0 (at node 0)
	maximum = 0.150333 (at node 11)
Injected flit rate average = 0.00933333
	minimum = 0.005 (at node 0)
	maximum = 0.013 (at node 9)
Accepted flit rate average= 0.00939583
	minimum = 0 (at node 0)
	maximum = 0.150333 (at node 11)
Injected packet length average = 1
Accepted packet length average = 1
Total in-flight flits = 3 (3 measured)
latency change    = 0.00468237
throughput change = 0.0110865
Draining all recorded packets ...
Draining remaining packets ...
Time taken is 4551 cycles
Class 0:
Packet latency average = 18.5568
	minimum = 7
	maximum = 32
Network latency average = 18.5568
	minimum = 7
	maximum = 32
Slowest packet = 2008
Flit latency average = 18.5568
	minimum = 7
	maximum = 32
Slowest flit = 2008
Fragmentation average = 0
	minimum = 0
	maximum = 0
Injected packet rate average = 0.01125
	minimum = 0.004 (at node 9)
	maximum = 0.022 (at node 7)
Accepted packet rate average = 0.011
	minimum = 0 (at node 0)
	maximum = 0.176 (at node 11)
Injected flit rate average = 0.01125
	minimum = 0.004 (at node 9)
	maximum = 0.022 (at node 7)
Accepted flit rate average= 0.011
	minimum = 0 (at node 0)
	maximum = 0.176 (at node 11)
Injected packet length average = 1
Accepted packet length average = 1
Total in-flight flits = 2 (0 measured)
latency change    = 1
throughput change = 1
Class 0:
Packet latency average = 19.0497
	minimum = 7
	maximum = 32
Network latency average = 19.0497
	minimum = 7
	maximum = 32
Slowest packet = 2008
Flit latency average = 19.0497
	minimum = 7
	maximum = 32
Slowest flit = 2008
Fragmentation average = 0
	minimum = 0
	maximum = 0
Injected packet rate average = 0.0100625
	minimum = 0.005 (at node 14)
	maximum = 0.014 (at node 7)
Accepted packet rate average = 0.0100625
	minimum = 0 (at node 0)
	maximum = 0.161 (at node 11)
Injected flit rate average = 0.0100625
	minimum = 0.005 (at node 14)
	maximum = 0.014 (at node 7)
Accepted flit rate average= 0.0100625
	minimum = 0 (at node 0)
	maximum = 0.161 (at node 11)
Injected packet length average = 1
Accepted packet length average = 1
Total in-flight flits = 0 (0 measured)
latency change    = 0.0258729
throughput change = 0.0931677
Class 0:
Packet latency average = 20.0351
	minimum = 7
	maximum = 34
Network latency average = 20.0351
	minimum = 7
	maximum = 34
Slowest packet = 2187
Flit latency average = 20.0351
	minimum = 7
	maximum = 34
Slowest flit = 2187
Fragmentation average = 0
	minimum = 0
	maximum = 0
Injected packet rate average = 0.007375
	minimum = 0.002 (at node 10)
	maximum = 0.014 (at node 13)
Accepted packet rate average = 0.007125
	minimum = 0 (at node 0)
	maximum = 0.114 (at node 11)
Injected flit rate average = 0.007375
	minimum = 0.002 (at node 10)
	maximum = 0.014 (at node 13)
Accepted flit rate average= 0.007125
	minimum = 0 (at node 0)
	maximum = 0.114 (at node 11)
Injected packet length average = 1
Accepted packet length average = 1
Total in-flight flits = 2 (0 measured)
latency change    = 0.0491836
throughput change = 0.412281
Warmed up ...Time used is 1500 cycles
Class 0:
Packet latency average = 19.4444
	minimum = 7
	maximum = 33
Network latency average = 19.4444
	minimum = 7
	maximum = 33
Slowest packet = 2236
Flit latency average = 19.7162
	minimum = 7
	maximum = 33
Slowest flit = 2236
Fragmentation average = 0
	minimum = 0
	maximum = 0
Injected packet rate average = 0.009375
	minimum = 0.002 (at node 12)
	maximum = 0.018 (at node 6)
Accepted packet rate average = 0.00925
	minimum = 0 (at node 0)
	maximum = 0.148 (at node 11)
Injected flit rate average = 0.009375
	minimum = 0.002 (at node 12)
	maximum = 0.018 (at node 6)
Accepted flit rate average= 0.00925
	minimum = 0 (at node 0)
	maximum = 0.148 (at node 11)
Injected packet length average = 1
Accepted packet length average = 1
Total in-flight flits = 3 (3 measured)
latency change    = 0.0303759
throughput change = 0.22973
Class 0:
Packet latency average = 19.54
	minimum = 7
	maximum = 33
Network latency average = 19.54
	minimum = 7
	maximum = 33
Slowest packet = 2236
Flit latency average = 19.6711
	minimum = 7
	maximum = 33
Slowest flit = 2236
Fragmentation average = 0
	minimum = 0
	maximum = 0
Injected packet rate average = 0.0094375
	minimum = 0.005 (at node 12)
	maximum = 0.014 (at node 6)
Accepted packet rate average = 0.0095
	minimum = 0 (at node 0)
	maximum = 0.152 (at node 11)
Injected flit rate average = 0.0094375
	minimum = 0.005 (at node 12)
	maximum = 0.014 (at node 6)
Accepted flit rate average= 0.0095
	minimum = 0 (at node 0)
	maximum = 0.152 (at node 11)
Injected packet length average = 1
Accepted packet length average = 1
Total in-flight flits = 1 (1 measured)
latency change    = 0.00489025
throughput change = 0.0263158
Class 0:
Packet latency average = 19.7328
	minimum = 7
	maximum = 34
Network latency average = 19.7328
	minimum = 7
	maximum = 34
Slowest packet = 2383
Flit latency average = 19.8162
	minimum = 7
	maximum = 34
Slowest flit = 2383
Fragmentation average = 0
	minimum = 0
	maximum = 0
Injected packet rate average = 0.00975
	minimum = 0.00666667 (at node 2)
	maximum = 0.0126667 (at node 10)
Accepted packet rate average = 0.00975
	minimum = 0 (at node 0)
	maximum = 0.156 (at node 11)
Injected flit rate average = 0.00975
	minimum = 0.00666667 (at node 2)
	maximum = 0.0126667 (at node 10)
Accepted flit rate average= 0.00975
	minimum = 0 (at node 0)
	maximum = 0.156 (at node 11)
Injected packet length average = 1
Accepted packet length average = 1
Total in-flight flits = 2 (2 measured)
latency change    = 0.00976846
throughput change = 0.025641
Class 0:
Packet latency average = 19.6471
	minimum = 7
	maximum = 34
Network latency average = 19.6471
	minimum = 7
	maximum = 34
Slowest packet = 2383
Flit latency average = 19.711
	minimum = 7
	maximum = 34
Slowest flit = 2383
Fragmentation average = 0
	minimum = 0
	maximum = 0
Injected packet rate average = 0.0096875
	minimum = 0.0075 (at node 11)
	maximum = 0.0115 (at node 10)
Accepted packet rate average = 0.009625
	minimum = 0 (at node 0)
	maximum = 0.154 (at node 11)
Injected flit rate average = 0.0096875
	minimum = 0.0075 (at node 11)
	maximum = 0.0115 (at node 10)
Accepted flit rate average= 0.009625
	minimum = 0 (at node 0)
	maximum = 0.154 (at node 11)
Injected packet length average = 1
Accepted packet length average = 1
Total in-flight flits = 4 (4 measured)
latency change    = 0.00436197
throughput change = 0.012987
Draining all recorded packets ...
Draining remaining packets ...
Time taken is 3520 cycles
Class 0:
Packet latency average = 18
	minimum = 7
	maximum = 32
Network latency average = 18
	minimum = 7
	maximum = 32
Slowest packet = 2563
Flit latency average = 18
	minimum = 7
	maximum = 32
Slowest flit = 2563
Fragmentation average = 0
	minimum = 0
	maximum = 0
Injected packet rate average = 0.00925
	minimum = 0.004 (at node 0)
	maximum = 0.016 (at node 15)
Accepted packet rate average = 0.009
	minimum = 0 (at node 0)
	maximum = 0.144 (at node 11)
Injected flit rate average = 0.00925
	minimum = 0.004 (at node 0)
	maximum = 0.016 (at node 15)
Accepted flit rate average= 0.009
	minimum = 0 (at node 0)
	maximum = 0.144 (at node 11)
Injected packet length average = 1
Accepted packet length average = 1
Total in-flight flits = 2 (0 measured)
latency change    = 1
throughput change = 1
Class 0:
Packet latency average = 18.9268
	minimum = 7
	maximum = 32
Network latency average = 18.9268
	minimum = 7
	maximum = 32
Slowest packet = 2563
Flit latency average = 18.9268
	minimum = 7
	maximum = 32
Slowest flit = 2563
Fragmentation average = 0
	minimum = 0
	maximum = 0
Injected packet rate average = 0.0104375
	minimum = 0.006 (at node 3)
	maximum = 0.016 (at node 9)
Accepted packet rate average = 0.01025
	minimum = 0 (at node 0)
	maximum = 0.164 (at node 11)
Injected flit rate average = 0.0104375
	minimum = 0.006 (at node 3)
	maximum = 0.016 (at node 9)
Accepted flit rate average= 0.01025
	minimum = 0 (at node 0)
	maximum = 0.164 (at node 11)
Injected packet length average = 1
Accepted packet length average = 1
Total in-flight flits = 3 (0 measured)
latency change    = 0.0489691
throughput change = 0.121951
Class 0:
Packet latency average = 19.4507
	minimum = 7
	maximum = 32
Network latency average = 19.4507
	minimum = 7
	maximum = 32
Slowest packet = 2679
Flit latency average = 19.4507
	minimum = 7
	maximum = 32
Slowest flit = 2679
Fragmentation average = 0
	minimum = 0
	maximum = 0
Injected packet rate average = 0.0085
	minimum = 0.002 (at node 5)
	maximum = 0.012 (at node 0)
Accepted packet rate average = 0.008875
	minimum = 0 (at node 0)
	maximum = 0.142 (at node 11)
Injected flit rate average = 0.0085
	minimum = 0.002 (at node 5)
	maximum = 0.012 (at node 0)
Accepted flit rate average= 0.008875
	minimum = 0 (at node 0)
	maximum = 0.142 (at node 11)
Injected packet length average = 1
Accepted packet length average = 1
Total in-flight flits = 0 (0 measured)
latency change    = 0.0269335
throughput change = 0.15493
Warmed up ...Time used is 1500 cycles
Class 0:
Packet latency average = 18.5238
	minimum = 7
	maximum = 32
Network latency average = 18.5238
	minimum = 7
	maximum = 32
Slowest packet = 2755
Flit latency average = 18.5238
	minimum = 7
	maximum = 32
Slowest flit = 2755
Fragmentation average = 0
	minimum = 0
	maximum = 0
Injected packet rate average = 0.011
	minimum = 0.004 (at node 8)
	maximum = 0.022 (at node 10)
Accepted packet rate average = 0.0105
	minimum = 0 (at node 0)
	maximum = 0.168 (at node 11)
Injected flit rate average = 0.011
	minimum = 0.004 (at node 8)
	maximum = 0.022 (at node 10)
Accepted flit rate average= 0.0105
	minimum = 0 (at node 0)
	maximum = 0.168 (at node 11)
Injected packet length average = 1
Accepted packet length average = 1
Total in-flight flits = 4 (4 measured)
latency change    = 0.050038
throughput change = 0.154762
Class 0:
Packet latency average = 18.8931
	minimum = 7
	maximum = 33
Network latency average = 18.8931
	minimum = 7
	maximum = 33
Slowest packet = 2880
Flit latency average = 18.8931
	minimum = 7
	maximum = 33
Slowest flit = 2880
Fragmentation average = 0
	minimum = 0
	maximum = 0
Injected packet rate average = 0.010125
	minimum = 0.005 (at node 8)
	maximum = 0.016 (at node 14)
Accepted packet rate average = 0.0099375
	minimum = 0 (at node 0)
	maximum = 0.159 (at node 11)
Injected flit rate average = 0.010125
	minimum = 0.005 (at node 8)
	maximum = 0.016 (at node 14)
Accepted flit rate average= 0.0099375
	minimum = 0 (at node 0)
	maximum = 0.159 (at node 11)
Injected packet length average = 1
Accepted packet length average = 1
Total in-flight flits = 3 (3 measured)
latency change    = 0.0195454
throughput change = 0.0566038
Class 0:
Packet latency average = 19.243
	minimum = 7
	maximum = 34
Network latency average = 19.243
	minimum = 7
	maximum = 34
Slowest packet = 2986
Flit latency average = 19.243
	minimum = 7
	maximum = 34
Slowest flit = 2986
Fragmentation average = 0
	minimum = 0
	maximum = 0
Injected packet rate average = 0.0105417
	minimum = 0.006 (at node 1)
	maximum = 0.0146667 (at node 7)
Accepted packet rate average = 0.0104583
	minimum = 0 (at node 0)
	maximum = 0.167333 (at node 11)
Injected flit rate average = 0.0105417
	minimum = 0.006 (at node 1)
	maximum = 0.0146667 (at node 7)
Accepted flit rate average= 0.0104583
	minimum = 0 (at node 0)
	maximum = 0.167333 (at node 11)
Injected packet length average = 1
Accepted packet length average = 1
Total in-flight flits = 2 (2 measured)
latency change    = 0.0181856
throughput change = 0.0498008
Class 0:
Packet latency average = 19.2934
	minimum = 7
	maximum = 34
Network latency average = 19.2934
	minimum = 7
	maximum = 34
Slowest packet = 2986
Flit latency average = 19.2934
	minimum = 7
	maximum = 34
Slowest flit = 2986
Fragmentation average = 0
	minimum = 0
	maximum = 0
Injected packet rate average = 0.0105313
	minimum = 0.007 (at node 8)
	maximum = 0.015 (at node 7)
Accepted packet rate average = 0.0104375
	minimum = 0 (at node 0)
	maximum = 0.167 (at node 11)
Injected flit rate average = 0.0105313
	minimum = 0.007 (at node 8)
	maximum = 0.015 (at node 7)
Accepted flit rate average= 0.0104375
	minimum = 0 (at node 0)
	maximum = 0.167 (at node 11)
Injected packet length average = 1
Accepted packet length average = 1
Total in-flight flits = 3 (3 measured)
latency change    = 0.00261153
throughput change = 0.00199601
Class 0:
Packet latency average = 19.1643
	minimum = 7
	maximum = 34
Network latency average = 19.1643
	minimum = 7
	maximum = 34
Slowest packet = 2986
Flit latency average = 19.1643
	minimum = 7
	maximum = 34
Slowest flit = 2986
Fragmentation average = 0
	minimum = 0
	maximum = 0
Injected packet rate average = 0.010375
	minimum = 0.0068 (at node 3)
	maximum = 0.0144 (at node 4)
Accepted packet rate average = 0.01035
	minimum = 0 (at node 0)
	maximum = 0.1656 (at node 11)
Injected flit rate average = 0.010375
	minimum = 0.0068 (at node 3)
	maximum = 0.0144 (at node 4)
Accepted flit rate average= 0.01035
	minimum = 0 (at node 0)
	maximum = 0.1656 (at node 11)
Injected packet length average = 1
Accepted packet length average = 1
Total in-flight flits = 1 (1 measured)
latency change    = 0.00673973
throughput change = 0.00845411
Draining all recorded packets ...
Draining remaining packets ...
Time taken is 4032 cycles
Class 0:
Packet latency average = 18.7662
	minimum = 7
	maximum = 29
Network latency average = 18.7662
	minimum = 7
	maximum = 29
Slowest packet = 3211
Flit latency average = 18.7662
	minimum = 7
	maximum = 29
Slowest flit = 3211
Fragmentation average = 0
	minimum = 0
	maximum = 0
Injected packet rate average = 0.0105
	minimum = 0 (at node 0)
	maximum = 0.018 (at node 5)
Accepted packet rate average = 0.009625
	minimum = 0 (at node 0)
	maximum = 0.154 (at node 11)
Injected flit rate average = 0.0105
	minimum = 0 (at node 0)
	maximum = 0.018 (at node 5)
Accepted flit rate average= 0.009625
	minimum = 0 (at node 0)
	maximum = 0.154 (at node 11)
Injected packet length average = 1
Accepted packet length average = 1
Total in-flight flits = 7 (0 measured)
latency change    = 1
throughput change = 1
Class 0:
Packet latency average = 18.723
	minimum = 7
	maximum = 32
Network latency average = 18.723
	minimum = 7
	maximum = 32
Slowest packet = 3271
Flit latency average = 18.723
	minimum = 7
	maximum = 32
Slowest flit = 3271
Fragmentation average = 0
	minimum = 0
	maximum = 0
Injected packet rate average = 0.0095
	minimum = 0.003 (at node 0)
	maximum = 0.013 (at node 5)
Accepted packet rate average = 0.00925
	minimum = 0 (at node 0)
	maximum = 0.148 (at node 11)
Injected flit rate average = 0.0095
	minimum = 0.003 (at node 0)
	maximum = 0.013 (at node 5)
Accepted flit rate average= 0.00925
	minimum = 0 (at node 0)
	maximum = 0.148 (at node 11)
Injected packet length average = 1
Accepted packet length average = 1
Total in-flight flits = 4 (0 measured)
latency change    = 0.00231057
throughput change = 0.0405405
Class 0:
Packet latency average = 19.2683
	minimum = 7
	maximum = 32
Network latency average = 19.2683
	minimum = 7
	maximum = 32
Slowest packet = 3347
Flit latency average = 19.2683
	minimum = 7
	maximum = 32
Slowest flit = 3347
Fragmentation average = 0
	minimum = 0
	maximum = 0
Injected packet rate average = 0.0105
	minimum = 0.004 (at node 6)
	maximum = 0.024 (at node 13)
Accepted packet rate average = 0.01025
	minimum = 0 (at node 0)
	maximum = 0.164 (at node 11)
Injected flit rate average = 0.0105
	minimum = 0.004 (at node 6)
	maximum = 0.024 (at node 13)
Accepted flit rate average= 0.01025
	minimum = 0 (at node 0)
	maximum = 0.164 (at node 11)
Injected packet length average = 1
Accepted packet length average = 1
Total in-flight flits = 6 (0 measured)
latency change    = 0.0283014
throughput change = 0.097561
Warmed up ...Time used is 1500 cycles
Class 0:
Packet latency average = 20.3371
	minimum = 7
	maximum = 36
Network latency average = 20.3371
	minimum = 7
	maximum = 36
Slowest packet = 3409
Flit latency average = 20.8
	minimum = 7
	maximum = 36
Slowest flit = 3409
Fragmentation average = 0
	minimum = 0
	maximum = 0
Injected packet rate average = 0.01175
	minimum = 0.004 (at node 10)
	maximum = 0.018 (at node 13)
Accepted packet rate average = 0.011875
	minimum = 0 (at node 0)
	maximum = 0.19 (at node 11)
Injected flit rate average = 0.01175
	minimum = 0.004 (at node 10)
	maximum = 0.018 (at node 13)
Accepted flit rate average= 0.011875
	minimum = 0 (at node 0)
	maximum = 0.19 (at node 11)
Injected packet length average = 1
Accepted packet length average = 1
Total in-flight flits = 5 (5 measured)
latency change    = 0.0525536
throughput change = 0.136842
Class 0:
Packet latency average = 20.1497
	minimum = 7
	maximum = 36
Network latency average = 20.1497
	minimum = 7
	maximum = 36
Slowest packet = 3409
Flit latency average = 20.4104
	minimum = 7
	maximum = 36
Slowest flit = 3409
Fragmentation average = 0
	minimum = 0
	maximum = 0
Injected packet rate average = 0.0106875
	minimum = 0.007 (at node 15)
	maximum = 0.015 (at node 1)
Accepted packet rate average = 0.0108125
	minimum = 0 (at node 0)
	maximum = 0.173 (at node 11)
Injected flit rate average = 0.0106875
	minimum = 0.007 (at node 15)
	maximum = 0.015 (at node 1)
Accepted flit rate average= 0.0108125
	minimum = 0 (at node 0)
	maximum = 0.173 (at node 11)
Injected packet length average = 1
Accepted packet length average = 1
Total in-flight flits = 4 (4 measured)
latency change    = 0.0092993
throughput change = 0.0982659
Class 0:
Packet latency average = 20.0658
	minimum = 7
	maximum = 36
Network latency average = 20.0658
	minimum = 7
	maximum = 36
Slowest packet = 3409
Flit latency average = 20.249
	minimum = 7
	maximum = 36
Slowest flit = 3409
Fragmentation average = 0
	minimum = 0
	maximum = 0
Injected packet rate average = 0.01025
	minimum = 0.00666667 (at node 7)
	maximum = 0.014 (at node 1)
Accepted packet rate average = 0.010375
	minimum = 0 (at node 0)
	maximum = 0.166 (at node 11)
Injected flit rate average = 0.01025
	minimum = 0.00666667 (at node 7)
	maximum = 0.014 (at node 1)
Accepted flit rate average= 0.010375
	minimum = 0 (at node 0)
	maximum = 0.166 (at node 11)
Injected packet length average = 1
Accepted packet length average = 1
Total in-flight flits = 3 (3 measured)
latency change    = 0.00417909
throughput change = 0.0421687
Class 0:
Packet latency average = 19.7485
	minimum = 7
	maximum = 36
Network latency average = 19.7485
	minimum = 7
	maximum = 36
Slowest packet = 3409
Flit latency average = 19.8916
	minimum = 7
	maximum = 36
Slowest flit = 3409
Fragmentation average = 0
	minimum = 0
	maximum = 0
Injected packet rate average = 0.0103438
	minimum = 0.0085 (at node 14)
	maximum = 0.0125 (at node 1)
Accepted packet rate average = 0.010375
	minimum = 0 (at node 0)
	maximum = 0.166 (at node 11)
Injected flit rate average = 0.0103438
	minimum = 0.0085 (at node 14)
	maximum = 0.0125 (at node 1)
Accepted flit rate average= 0.010375
	minimum = 0 (at node 0)
	maximum = 0.166 (at node 11)
Injected packet length average = 1
Accepted packet length average = 1
Total in-flight flits = 5 (5 measured)
latency change    = 0.016071
throughput change = 0
Class 0:
Packet latency average = 19.8456
	minimum = 7
	maximum = 36
Network latency average = 19.8456
	minimum = 7
	maximum = 36
Slowest packet = 3409
Flit latency average = 19.9589
	minimum = 7
	maximum = 36
Slowest flit = 3409
Fragmentation average = 0
	minimum = 0
	maximum = 0
Injected packet rate average = 0.0103
	minimum = 0.0084 (at node 9)
	maximum = 0.0128 (at node 1)
Accepted packet rate average = 0.01035
	minimum = 0 (at node 0)
	maximum = 0.1656 (at node 11)
Injected flit rate average = 0.0103
	minimum = 0.0084 (at node 9)
	maximum = 0.0128 (at node 1)
Accepted flit rate average= 0.01035
	minimum = 0 (at node 0)
	maximum = 0.1656 (at node 11)
Injected packet length average = 1
Accepted packet length average = 1
Total in-flight flits = 4 (4 measured)
latency change    = 0.00489388
throughput change = 0.00241546
Draining all recorded packets ...
Draining remaining packets ...
Time taken is 4028 cycles
Class 0:
Packet latency average = 19.2222
	minimum = 7
	maximum = 32
Network latency average = 19.2222
	minimum = 7
	maximum = 32
Slowest packet = 3830
Flit latency average = 19.2222
	minimum = 7
	maximum = 32
Slowest flit = 3830
Fragmentation average = 0
	minimum = 0
	maximum = 0
Injected packet rate average = 0.0095
	minimum = 0.002 (at node 9)
	maximum = 0.016 (at node 1)
Accepted packet rate average = 0.009
	minimum = 0 (at node 0)
	maximum = 0.144 (at node 11)
Injected flit rate average = 0.0095
	minimum = 0.002 (at node 9)
	maximum = 0.016 (at node 1)
Accepted flit rate average= 0.009
	minimum = 0 (at node 0)
	maximum = 0.144 (at node 11)
Injected packet length average = 1
Accepted packet length average = 1
Total in-flight flits = 4 (0 measured)
latency change    = 1
throughput change = 1
Class 0:
Packet latency average = 19.979
	minimum = 7
	maximum = 36
Network latency average = 19.979
	minimum = 7
	maximum = 36
Slowest packet = 3947
Flit latency average = 19.979
	minimum = 7
	maximum = 36
Slowest flit = 3947
Fragmentation average = 0
	minimum = 0
	maximum = 0
Injected packet rate average = 0.009125
	minimum = 0.006 (at node 8)
	maximum = 0.014 (at node 5)
Accepted packet rate average = 0.0089375
	minimum = 0 (at node 0)
	maximum = 0.143 (at node 11)
Injected flit rate average = 0.009125
	minimum = 0.006 (at node 8)
	maximum = 0.014 (at node 5)
Accepted flit rate average= 0.0089375
	minimum = 0 (at node 0)
	maximum = 0.143 (at node 11)
Injected packet length average = 1
Accepted packet length average = 1
Total in-flight flits = 3 (0 measured)
latency change    = 0.0378797
throughput change = 0.00699301
Class 0:
Packet latency average = 19.1449
	minimum = 7
	maximum = 32
Network latency average = 19.1449
	minimum = 7
	maximum = 32
Slowest packet = 3963
Flit latency average = 19.1449
	minimum = 7
	maximum = 32
Slowest flit = 3963
Fragmentation average = 0
	minimum = 0
	maximum = 0
Injected packet rate average = 0.008375
	minimum = 0.002 (at node 4)
	maximum = 0.016 (at node 10)
Accepted packet rate average = 0.008625
	minimum = 0 (at node 0)
	maximum = 0.138 (at node 11)
Injected flit rate average = 0.008375
	minimum = 0.002 (at node 4)
	maximum = 0.016 (at node 10)
Accepted flit rate average= 0.008625
	minimum = 0 (at node 0)
	maximum = 0.138 (at node 11)
Injected packet length average = 1
Accepted packet length average = 1
Total in-flight flits = 1 (0 measured)
latency change    = 0.0435673
throughput change = 0.0362319
Warmed up ...Time used is 1500 cycles
Class 0:
Packet latency average = 18.775
	minimum = 7
	maximum = 33
Network latency average = 18.775
	minimum = 7
	maximum = 33
Slowest packet = 4079
Flit latency average = 18.8395
	minimum = 7
	maximum = 33
Slowest flit = 4079
Fragmentation average = 0
	minimum = 0
	maximum = 0
Injected packet rate average = 0.01025
	minimum = 0.004 (at node 0)
	maximum = 0.018 (at node 10)
Accepted packet rate average = 0.010125
	minimum = 0 (at node 0)
	maximum = 0.162 (at node 11)
Injected flit rate average = 0.01025
	minimum = 0.004 (at node 0)
	maximum = 0.018 (at node 10)
Accepted flit rate average= 0.010125
	minimum = 0 (at node 0)
	maximum = 0.162 (at node 11)
Injected packet length average = 1
Accepted packet length average = 1
Total in-flight flits = 2 (2 measured)
latency change    = 0.0197032
throughput change = 0.148148
Class 0:
Packet latency average = 19.3757
	minimum = 7
	maximum = 36
Network latency average = 19.3757
	minimum = 7
	maximum = 36
Slowest packet = 4148
Flit latency average = 19.4023
	minimum = 7
	maximum = 36
Slowest flit = 4148
Fragmentation average = 0
	minimum = 0
	maximum = 0
Injected packet rate average = 0.011
	minimum = 0.007 (at node 15)
	maximum = 0.017 (at node 7)
Accepted packet rate average = 0.010875
	minimum = 0 (at node 0)
	maximum = 0.174 (at node 11)
Injected flit rate average = 0.011
	minimum = 0.007 (at node 15)
	maximum = 0.017 (at node 7)
Accepted flit rate average= 0.010875
	minimum = 0 (at node 0)
	maximum = 0.174 (at node 11)
Injected packet length average = 1
Accepted packet length average = 1
Total in-flight flits = 3 (3 measured)
latency change    = 0.0310039
throughput change = 0.0689655
Class 0:
Packet latency average = 18.9623
	minimum = 7
	maximum = 36
Network latency average = 18.9623
	minimum = 7
	maximum = 36
Slowest packet = 4148
Flit latency average = 18.9812
	minimum = 7
	maximum = 36
Slowest flit = 4148
Fragmentation average = 0
	minimum = 0
	maximum = 0
Injected packet rate average = 0.011125
	minimum = 0.00666667 (at node 0)
	maximum = 0.0193333 (at node 7)
Accepted packet rate average = 0.0110833
	minimum = 0 (at node 0)
	maximum = 0.177333 (at node 11)
Injected flit rate average = 0.011125
	minimum = 0.00666667 (at node 0)
	maximum = 0.0193333 (at node 7)
Accepted flit rate average= 0.0110833
	minimum = 0 (at node 0)
	maximum = 0.177333 (at node 11)
Injected packet length average = 1
Accepted packet length average = 1
Total in-flight flits = 2 (2 measured)
latency change    = 0.0218043
throughput change = 0.018797
Class 0:
Packet latency average = 18.8796
	minimum = 7
	maximum = 36
Network latency average = 18.8796
	minimum = 7
	maximum = 36
Slowest packet = 4148
Flit latency average = 18.8939
	minimum = 7
	maximum = 36
Slowest flit = 4148
Fragmentation average = 0
	minimum = 0
	maximum = 0
Injected packet rate average = 0.0113125
	minimum = 0.008 (at node 0)
	maximum = 0.018 (at node 7)
Accepted packet rate average = 0.0111875
	minimum = 0 (at node 0)
	maximum = 0.179 (at node 11)
Injected flit rate average = 0.0113125
	minimum = 0.008 (at node 0)
	maximum = 0.018 (at node 7)
Accepted flit rate average= 0.0111875
	minimum = 0 (at node 0)
	maximum = 0.179 (at node 11)
Injected packet length average = 1
Accepted packet length average = 1
Total in-flight flits = 5 (5 measured)
latency change    = 0.00438105
throughput change = 0.00931099
Class 0:
Packet latency average = 18.9159
	minimum = 7
	maximum = 36
Network latency average = 18.9159
	minimum = 7
	maximum = 36
Slowest packet = 4148
Flit latency average = 18.9274
	minimum = 7
	maximum = 36
Slowest flit = 4148
Fragmentation average = 0
	minimum = 0
	maximum = 0
Injected packet rate average = 0.011025
	minimum = 0.0068 (at node 0)
	maximum = 0.0172 (at node 7)
Accepted packet rate average = 0.011025
	minimum = 0 (at node 0)
	maximum = 0.1764 (at node 11)
Injected flit rate average = 0.011025
	minimum = 0.0068 (at node 0)
	maximum = 0.0172 (at node 7)
Accepted flit rate average= 0.011025
	minimum = 0 (at node 0)
	maximum = 0.1764 (at node 11)
Injected packet length average = 1
Accepted packet length average = 1
Total in-flight flits = 1 (1 measured)
latency change    = 0.00192205
throughput change = 0.0147392
Draining all recorded packets ...
Draining remaining packets ...
Time taken is 4015 cycles
Class 0:
Packet latency average = 18.8378
	minimum = 7
	maximum = 33
Network latency average = 18.8378
	minimum = 7
	maximum = 33
Slowest packet = 4507
Flit latency average = 18.8378
	minimum = 7
	maximum = 33
Slowest flit = 4507
Fragmentation average = 0
	minimum = 0
	maximum = 0
Injected packet rate average = 0.009375
	minimum = 0.004 (at node 5)
	maximum = 0.016 (at node 10)
Accepted packet rate average = 0.00925
	minimum = 0 (at node 0)
	maximum = 0.148 (at node 11)
Injected flit rate average = 0.009375
	minimum = 0.004 (at node 5)
	maximum = 0.016 (at node 10)
Accepted flit rate average= 0.00925
	minimum = 0 (at node 0)
	maximum = 0.148 (at node 11)
Injected packet length average = 1
Accepted packet length average = 1
Total in-flight flits = 1 (0 measured)
latency change    = 1
throughput change = 1
Class 0:
Packet latency average = 19.3333
	minimum = 7
	maximum = 33
Network latency average = 19.3333
	minimum = 7
	maximum = 33
Slowest packet = 4507
Flit latency average = 19.3333
	minimum = 7
	maximum = 33
Slowest flit = 4507
Fragmentation average = 0
	minimum = 0
	maximum = 0
Injected packet rate average = 0.009625
	minimum = 0.003 (at node 5)
	maximum = 0.016 (at node 9)
Accepted packet rate average = 0.009375
	minimum = 0 (at node 0)
	maximum = 0.15 (at node 11)
Injected flit rate average = 0.009625
	minimum = 0.003 (at node 5)
	maximum = 0.016 (at node 9)
Accepted flit rate average= 0.009375
	minimum = 0 (at node 0)
	maximum = 0.15 (at node 11)
Injected packet length average = 1
Accepted packet length average = 1
Total in-flight flits = 4 (0 measured)
latency change    = 0.0256291
throughput change = 0.0133333
Class 0:
Packet latency average = 19.0795
	minimum = 7
	maximum = 33
Network latency average = 19.0795
	minimum = 7
	maximum = 33
Slowest packet = 4637
Flit latency average = 19.0795
	minimum = 7
	maximum = 33
Slowest flit = 4637
Fragmentation average = 0
	minimum = 0
	maximum = 0
Injected packet rate average = 0.0105
	minimum = 0.002 (at node 9)
	maximum = 0.022 (at node 6)
Accepted packet rate average = 0.011
	minimum = 0 (at node 0)
	maximum = 0.176 (at node 11)
Injected flit rate average = 0.0105
	minimum = 0.002 (at node 9)
	maximum = 0.022 (at node 6)
Accepted flit rate average= 0.011
	minimum = 0 (at node 0)
	maximum = 0.176 (at node 11)
Injected packet length average = 1
Accepted packet length average = 1
Total in-flight flits = 0 (0 measured)
latency change    = 0.0133016
throughput change = 0.147727
Warmed up ...Time used is 1500 cycles
Class 0:
Packet latency average = 19.6163
	minimum = 7
	maximum = 32
Network latency average = 19.6163
	minimum = 7
	maximum = 32
Slowest packet = 4720
Flit latency average = 19.6163
	minimum = 7
	maximum = 32
Slowest flit = 4720
Fragmentation average = 0
	minimum = 0
	maximum = 0
Injected packet rate average = 0.010875
	minimum = 0.002 (at node 6)
	maximum = 0.016 (at node 3)
Accepted packet rate average = 0.01075
	minimum = 0 (at node 0)
	maximum = 0.172 (at node 11)
Injected flit rate average = 0.010875
	minimum = 0.002 (at node 6)
	maximum = 0.016 (at node 3)
Accepted flit rate average= 0.01075
	minimum = 0 (at node 0)
	maximum = 0.172 (at node 11)
Injected packet length average = 1
Accepted packet length average = 1
Total in-flight flits = 1 (1 measured)
latency change    = 0.0273616
throughput change = 0.0232558
Class 0:
Packet latency average = 19.8325
	minimum = 7
	maximum = 33
Network latency average = 19.8325
	minimum = 7
	maximum = 33
Slowest packet = 4841
Flit latency average = 19.8325
	minimum = 7
	maximum = 33
Slowest flit = 4841
Fragmentation average = 0
	minimum = 0
	maximum = 0
Injected packet rate average = 0.0124375
	minimum = 0.008 (at node 1)
	maximum = 0.018 (at node 8)
Accepted packet rate average = 0.0119375
	minimum = 0 (at node 0)
	maximum = 0.191 (at node 11)
Injected flit rate average = 0.0124375
	minimum = 0.008 (at node 1)
	maximum = 0.018 (at node 8)
Accepted flit rate average= 0.0119375
	minimum = 0 (at node 0)
	maximum = 0.191 (at node 11)
Injected packet length average = 1
Accepted packet length average = 1
Total in-flight flits = 8 (8 measured)
latency change    = 0.0109004
throughput change = 0.0994764
Class 0:
Packet latency average = 19.6596
	minimum = 7
	maximum = 33
Network latency average = 19.6596
	minimum = 7
	maximum = 33
Slowest packet = 4841
Flit latency average = 19.6596
	minimum = 7
	maximum = 33
Slowest flit = 4841
Fragmentation average = 0
	minimum = 0
	maximum = 0
Injected packet rate average = 0.0120417
	minimum = 0.00866667 (at node 1)
	maximum = 0.016 (at node 8)
Accepted packet rate average = 0.011875
	minimum = 0 (at node 0)
	maximum = 0.19 (at node 11)
Injected flit rate average = 0.0120417
	minimum = 0.00866667 (at node 1)
	maximum = 0.016 (at node 8)
Accepted flit rate average= 0.011875
	minimum = 0 (at node 0)
	maximum = 0.19 (at node 11)
Injected packet length average = 1
Accepted packet length average = 1
Total in-flight flits = 4 (4 measured)
latency change    = 0.00879017
throughput change = 0.00526316
Class 0:
Packet latency average = 19.4087
	minimum = 7
	maximum = 33
Network latency average = 19.4087
	minimum = 7
	maximum = 33
Slowest packet = 4841
Flit latency average = 19.4087
	minimum = 7
	maximum = 33
Slowest flit = 4841
Fragmentation average = 0
	minimum = 0
	maximum = 0
Injected packet rate average = 0.0116562
	minimum = 0.0075 (at node 5)
	maximum = 0.0145 (at node 8)
Accepted packet rate average = 0.0114687
	minimum = 0 (at node 0)
	maximum = 0.1835 (at node 11)
Injected flit rate average = 0.0116562
	minimum = 0.0075 (at node 5)
	maximum = 0.0145 (at node 8)
Accepted flit rate average= 0.0114687
	minimum = 0 (at node 0)
	maximum = 0.1835 (at node 11)
Injected packet length average = 1
Accepted packet length average = 1
Total in-flight flits = 6 (6 measured)
latency change    = 0.0129287
throughput change = 0.0354223
Class 0:
Packet latency average = 19.4289
	minimum = 7
	maximum = 33
Network latency average = 19.4289
	minimum = 7
	maximum = 33
Slowest packet = 4841
Flit latency average = 19.4289
	minimum = 7
	maximum = 33
Slowest flit = 4841
Fragmentation average = 0
	minimum = 0
	maximum = 0
Injected packet rate average = 0.011475
	minimum = 0.0088 (at node 5)
	maximum = 0.0128 (at node 3)
Accepted packet rate average = 0.011425
	minimum = 0 (at node 0)
	maximum = 0.1828 (at node 11)
Injected flit rate average = 0.011475
	minimum = 0.0088 (at node 5)
	maximum = 0.0128 (at node 3)
Accepted flit rate average= 0.011425
	minimum = 0 (at node 0)
	maximum = 0.1828 (at node 11)
Injected packet length average = 1
Accepted packet length average = 1
Total in-flight flits = 2 (2 measured)
latency change    = 0.00103787
throughput change = 0.00382932
Draining all recorded packets ...
Draining remaining packets ...
Time taken is 4037 cycles
Class 0:
Packet latency average = 19.3951
	minimum = 7
	maximum = 32
Network latency average = 19.3951
	minimum = 7
	maximum = 32
Slowest packet = 5217
Flit latency average = 19.3951
	minimum = 7
	maximum = 32
Slowest flit = 5217
Fragmentation average = 0
	minimum = 0
	maximum = 0
Injected packet rate average = 0.010375
	minimum = 0.002 (at node 4)
	maximum = 0.02 (at node 12)
Accepted packet rate average = 0.010125
	minimum = 0 (at node 0)
	maximum = 0.162 (at node 11)
Injected flit rate average = 0.010375
	minimum = 0.002 (at node 4)
	maximum = 0.02 (at node 12)
Accepted flit rate average= 0.010125
	minimum = 0 (at node 0)
	maximum = 0.162 (at node 11)
Injected packet length average = 1
Accepted packet length average = 1
Total in-flight flits = 2 (0 measured)
latency change    = 1
throughput change = 1
Class 0:
Packet latency average = 19.3101
	minimum = 7
	maximum = 33
Network latency average = 19.3101
	minimum = 7
	maximum = 33
Slowest packet = 5294
Flit latency average = 19.3101
	minimum = 7
	maximum = 33
Slowest flit = 5294
Fragmentation average = 0
	minimum = 0
	maximum = 0
Injected packet rate average = 0.0099375
	minimum = 0.005 (at node 4)
	maximum = 0.015 (at node 13)
Accepted packet rate average = 0.009875
	minimum = 0 (at node 0)
	maximum = 0.158 (at node 11)
Injected flit rate average = 0.0099375
	minimum = 0.005 (at node 4)
	maximum = 0.015 (at node 13)
Accepted flit rate average= 0.009875
	minimum = 0 (at node 0)
	maximum = 0.158 (at node 11)
Injected packet length average = 1
Accepted packet length average = 1
Total in-flight flits = 1 (0 measured)
latency change    = 0.00439848
throughput change = 0.0253165
Class 0:
Packet latency average = 20.8295
	minimum = 7
	maximum = 32
Network latency average = 20.8295
	minimum = 7
	maximum = 32
Slowest packet = 5347
Flit latency average = 20.8295
	minimum = 7
	maximum = 32
Slowest flit = 5347
Fragmentation average = 0
	minimum = 0
	maximum = 0
Injected packet rate average = 0.011125
	minimum = 0.002 (at node 0)
	maximum = 0.02 (at node 12)
Accepted packet rate average = 0.011
	minimum = 0 (at node 0)
	maximum = 0.176 (at node 11)
Injected flit rate average = 0.011125
	minimum = 0.002 (at node 0)
	maximum = 0.02 (at node 12)
Accepted flit rate average= 0.011
	minimum = 0 (at node 0)
	maximum = 0.176 (at node 11)
Injected packet length average = 1
Accepted packet length average = 1
Total in-flight flits = 2 (0 measured)
latency change    = 0.0729454
throughput change = 0.102273
Warmed up ...Time used is 1500 cycles
Class 0:
Packet latency average = 19.2706
	minimum = 7
	maximum = 33
Network latency average = 19.2706
	minimum = 7
	maximum = 33
Slowest packet = 5453
Flit latency average = 19.2759
	minimum = 7
	maximum = 33
Slowest flit = 5453
Fragmentation average = 0
	minimum = 0
	maximum = 0
Injected packet rate average = 0.01075
	minimum = 0.004 (at node 8)
	maximum = 0.022 (at node 11)
Accepted packet rate average = 0.010875
	minimum = 0 (at node 0)
	maximum = 0.174 (at node 11)
Injected flit rate average = 0.01075
	minimum = 0.004 (at node 8)
	maximum = 0.022 (at node 11)
Accepted flit rate average= 0.010875
	minimum = 0 (at node 0)
	maximum = 0.174 (at node 11)
Injected packet length average = 1
Accepted packet length average = 1
Total in-flight flits = 1 (1 measured)
latency change    = 0.0808983
throughput change = 0.0114943
Class 0:
Packet latency average = 19.5706
	minimum = 7
	maximum = 33
Network latency average = 19.5706
	minimum = 7
	maximum = 33
Slowest packet = 5453
Flit latency average = 19.5698
	minimum = 7
	maximum = 33
Slowest flit = 5453
Fragmentation average = 0
	minimum = 0
	maximum = 0
Injected packet rate average = 0.0108125
	minimum = 0.005 (at node 8)
	maximum = 0.016 (at node 11)
Accepted packet rate average = 0.01075
	minimum = 0 (at node 0)
	maximum = 0.172 (at node 11)
Injected flit rate average = 0.0108125
	minimum = 0.005 (at node 8)
	maximum = 0.016 (at node 11)
Accepted flit rate average= 0.01075
	minimum = 0 (at node 0)
	maximum = 0.172 (at node 11)
Injected packet length average = 1
Accepted packet length average = 1
Total in-flight flits = 3 (3 measured)
latency change    = 0.0153291
throughput change = 0.0116279
Class 0:
Packet latency average = 19.5458
	minimum = 7
	maximum = 33
Network latency average = 19.5458
	minimum = 7
	maximum = 33
Slowest packet = 5453
Flit latency average = 19.5455
	minimum = 7
	maximum = 33
Slowest flit = 5453
Fragmentation average = 0
	minimum = 0
	maximum = 0
Injected packet rate average = 0.0105
	minimum = 0.00466667 (at node 10)
	maximum = 0.014 (at node 3)
Accepted packet rate average = 0.0105417
	minimum = 0 (at node 0)
	maximum = 0.168667 (at node 11)
Injected flit rate average = 0.0105
	minimum = 0.00466667 (at node 10)
	maximum = 0.014 (at node 3)
Accepted flit rate average= 0.0105417
	minimum = 0 (at node 0)
	maximum = 0.168667 (at node 11)
Injected packet length average = 1
Accepted packet length average = 1
Total in-flight flits = 1 (1 measured)
latency change    = 0.00126736
throughput change = 0.0197628
Class 0:
Packet latency average = 19.3846
	minimum = 7
	maximum = 33
Network latency average = 19.3846
	minimum = 7
	maximum = 33
Slowest packet = 5453
Flit latency average = 19.3853
	minimum = 7
	maximum = 33
Slowest flit = 5453
Fragmentation average = 0
	minimum = 0
	maximum = 0
Injected packet rate average = 0.01025
	minimum = 0.0075 (at node 15)
	maximum = 0.0145 (at node 7)
Accepted packet rate average = 0.0102188
	minimum = 0 (at node 0)
	maximum = 0.1635 (at node 11)
Injected flit rate average = 0.01025
	minimum = 0.0075 (at node 15)
	maximum = 0.0145 (at node 7)
Accepted flit rate average= 0.0102188
	minimum = 0 (at node 0)
	maximum = 0.1635 (at node 11)
Injected packet length average = 1
Accepted packet length average = 1
Total in-flight flits = 3 (3 measured)
latency change    = 0.00831594
throughput change = 0.0316004
Draining all recorded packets ...
Draining remaining packets ...
Time taken is 3518 cycles
Class 0:
Packet latency average = 20.4024
	minimum = 7
	maximum = 32
Network latency average = 20.4024
	minimum = 7
	maximum = 32
Slowest packet = 5747
Flit latency average = 20.4024
	minimum = 7
	maximum = 32
Slowest flit = 5747
Fragmentation average = 0
	minimum = 0
	maximum = 0
Injected packet rate average = 0.01075
	minimum = 0.004 (at node 11)
	maximum = 0.018 (at node 2)
Accepted packet rate average = 0.01025
	minimum = 0 (at node 0)
	maximum = 0.164 (at node 11)
Injected flit rate average = 0.01075
	minimum = 0.004 (at node 11)
	maximum = 0.018 (at node 2)
Accepted flit rate average= 0.01025
	minimum = 0 (at node 0)
	maximum = 0.164 (at node 11)
Injected packet length average = 1
Accepted packet length average = 1
Total in-flight flits = 4 (0 measured)
latency change    = 1
throughput change = 1
Class 0:
Packet latency average = 19.7683
	minimum = 7
	maximum = 33
Network latency average = 19.7683
	minimum = 7
	maximum = 33
Slowest packet = 5851
Flit latency average = 19.7683
	minimum = 7
	maximum = 33
Slowest flit = 5851
Fragmentation average = 0
	minimum = 0
	maximum = 0
Injected packet rate average = 0.0104375
	minimum = 0.006 (at node 4)
	maximum = 0.016 (at node 8)
Accepted packet rate average = 0.01025
	minimum = 0 (at node 0)
	maximum = 0.164 (at node 11)
Injected flit rate average = 0.0104375
	minimum = 0.006 (at node 4)
	maximum = 0.016 (at node 8)
Accepted flit rate average= 0.01025
	minimum = 0 (at node 0)
	maximum = 0.164 (at node 11)
Injected packet length average = 1
Accepted packet length average = 1
Total in-flight flits = 3 (0 measured)
latency change    = 0.032079
throughput change = 0
Class 0:
Packet latency average = 18.6986
	minimum = 7
	maximum = 33
Network latency average = 18.6986
	minimum = 7
	maximum = 33
Slowest packet = 5980
Flit latency average = 18.6986
	minimum = 7
	maximum = 33
Slowest flit = 5980
Fragmentation average = 0
	minimum = 0
	maximum = 0
Injected packet rate average = 0.009125
	minimum = 0.002 (at node 13)
	maximum = 0.018 (at node 14)
Accepted packet rate average = 0.009125
	minimum = 0 (at node 0)
	maximum = 0.146 (at node 11)
Injected flit rate average = 0.009125
	minimum = 0.002 (at node 13)
	maximum = 0.018 (at node 14)
Accepted flit rate average= 0.009125
	minimum = 0 (at node 0)
	maximum = 0.146 (at node 11)
Injected packet length average = 1
Accepted packet length average = 1
Total in-flight flits = 3 (0 measured)
latency change    = 0.0572054
throughput change = 0.123288
Warmed up ...Time used is 1500 cycles
Class 0:
Packet latency average = 19.3492
	minimum = 7
	maximum = 34
Network latency average = 19.3492
	minimum = 7
	maximum = 34
Slowest packet = 6020
Flit latency average = 19.6212
	minimum = 7
	maximum = 34
Slowest flit = 6020
Fragmentation average = 0
	minimum = 0
	maximum = 0
Injected packet rate average = 0.008125
	minimum = 0 (at node 3)
	maximum = 0.02 (at node 2)
Accepted packet rate average = 0.00825
	minimum = 0 (at node 0)
	maximum = 0.132 (at node 11)
Injected flit rate average = 0.008125
	minimum = 0 (at node 3)
	maximum = 0.02 (at node 2)
Accepted flit rate average= 0.00825
	minimum = 0 (at node 0)
	maximum = 0.132 (at node 11)
Injected packet length average = 1
Accepted packet length average = 1
Total in-flight flits = 2 (2 measured)
latency change    = 0.0336229
throughput change = 0.106061
Class 0:
Packet latency average = 19.4286
	minimum = 7
	maximum = 34
Network latency average = 19.4286
	minimum = 7
	maximum = 34
Slowest packet = 6020
Flit latency average = 19.5524
	minimum = 7
	maximum = 34
Slowest flit = 6020
Fragmentation average = 0
	minimum = 0
	maximum = 0
Injected packet rate average = 0.0089375
	minimum = 0.004 (at node 8)
	maximum = 0.017 (at node 1)
Accepted packet rate average = 0.0089375
	minimum = 0 (at node 0)
	maximum = 0.143 (at node 11)
Injected flit rate average = 0.0089375
	minimum = 0.004 (at node 8)
	maximum = 0.017 (at node 1)
Accepted flit rate average= 0.0089375
	minimum = 0 (at node 0)
	maximum = 0.143 (at node 11)
Injected packet length average = 1
Accepted packet length average = 1
Total in-flight flits = 3 (3 measured)
latency change    = 0.00408497
throughput change = 0.0769231
Class 0:
Packet latency average = 19.5022
	minimum = 7
	maximum = 34
Network latency average = 19.5022
	minimum = 7
	maximum = 34
Slowest packet = 6020
Flit latency average = 19.5783
	minimum = 7
	maximum = 34
Slowest flit = 6020
Fragmentation average = 0
	minimum = 0
	maximum = 0
Injected packet rate average = 0.00966667
	minimum = 0.00666667 (at node 4)
	maximum = 0.014 (at node 1)
Accepted packet rate average = 0.00958333
	minimum = 0 (at node 0)
	maximum = 0.153333 (at node 11)
Injected flit rate average = 0.00966667
	minimum = 0.00666667 (at node 4)
	maximum = 0.014 (at node 1)
Accepted flit rate average= 0.00958333
	minimum = 0 (at node 0)
	maximum = 0.153333 (at node 11)
Injected packet length average = 1
Accepted packet length average = 1
Total in-flight flits = 5 (5 measured)
latency change    = 0.00377553
throughput change = 0.0673913
Class 0:
Packet latency average = 19.2964
	minimum = 7
	maximum = 34
Network latency average = 19.2964
	minimum = 7
	maximum = 34
Slowest packet = 6020
Flit latency average = 19.3548
	minimum = 7
	maximum = 34
Slowest flit = 6020
Fragmentation average = 0
	minimum = 0
	maximum = 0
Injected packet rate average = 0.0096875
	minimum = 0.007 (at node 4)
	maximum = 0.013 (at node 1)
Accepted packet rate average = 0.0096875
	minimum = 0 (at node 0)
	maximum = 0.155 (at node 11)
Injected flit rate average = 0.0096875
	minimum = 0.007 (at node 4)
	maximum = 0.013 (at node 1)
Accepted flit rate average= 0.0096875
	minimum = 0 (at node 0)
	maximum = 0.155 (at node 11)
Injected packet length average = 1
Accepted packet length average = 1
Total in-flight flits = 3 (3 measured)
latency change    = 0.0106645
throughput change = 0.0107527
Class 0:
Packet latency average = 19.5466
	minimum = 7
	maximum = 34
Network latency average = 19.5466
	minimum = 7
	maximum = 34
Slowest packet = 6020
Flit latency average = 19.5913
	minimum = 7
	maximum = 34
Slowest flit = 6020
Fragmentation average = 0
	minimum = 0
	maximum = 0
Injected packet rate average = 0.00975
	minimum = 0.0076 (at node 4)
	maximum = 0.0124 (at node 1)
Accepted packet rate average = 0.009725
	minimum = 0 (at node 0)
	maximum = 0.1556 (at node 11)
Injected flit rate average = 0.00975
	minimum = 0.0076 (at node 4)
	maximum = 0.0124 (at node 1)
Accepted flit rate average= 0.009725
	minimum = 0 (at node 0)
	maximum = 0.1556 (at node 11)
Injected packet length average = 1
Accepted packet length average = 1
Total in-flight flits = 4 (4 measured)
latency change    = 0.0128009
throughput change = 0.00385604
Class 0:
Packet latency average = 19.4183
	minimum = 7
	maximum = 34
Network latency average = 19.4183
	minimum = 7
	maximum = 34
Slowest packet = 6020
Flit latency average = 19.4578
	minimum = 7
	maximum = 34
Slowest flit = 6020
Fragmentation average = 0
	minimum = 0
	maximum = 0
Injected packet rate average = 0.009375
	minimum = 0.00666667 (at node 13)
	maximum = 0.0123333 (at node 1)
Accepted packet rate average = 0.009375
	minimum = 0 (at node 0)
	maximum = 0.15 (at node 11)
Injected flit rate average = 0.009375
	minimum = 0.00666667 (at node 13)
	maximum = 0.0123333 (at node 1)
Accepted flit rate average= 0.009375
	minimum = 0 (at node 0)
	maximum = 0.15 (at node 11)
Injected packet length average = 1
Accepted packet length average = 1
Total in-flight flits = 3 (3 measured)
latency change    = 0.00660652
throughput change = 0.0373333
Draining all recorded packets ...
Draining remaining packets ...
Time taken is 4518 cycles
Class 0:
Packet latency average = 21.3521
	minimum = 7
	maximum = 32
Network latency average = 21.3521
	minimum = 7
	maximum = 32
Slowest packet = 6449
Flit latency average = 21.3521
	minimum = 7
	maximum = 32
Slowest flit = 6449
Fragmentation average = 0
	minimum = 0
	maximum = 0
Injected packet rate average = 0.009125
	minimum = 0 (at node 15)
	maximum = 0.016 (at node 0)
Accepted packet rate average = 0.008875
	minimum = 0 (at node 0)
	maximum = 0.142 (at node 11)
Injected flit rate average = 0.009125
	minimum = 0 (at node 15)
	maximum = 0.016 (at node 0)
Accepted flit rate average= 0.008875
	minimum = 0 (at node 0)
	maximum = 0.142 (at node 11)
Injected packet length average = 1
Accepted packet length average = 1
Total in-flight flits = 2 (0 measured)
latency change    = 1
throughput change = 1
Class 0:
Packet latency average = 19.9679
	minimum = 7
	maximum = 32
Network latency average = 19.9679
	minimum = 7
	maximum = 32
Slowest packet = 6449
Flit latency average = 19.9679
	minimum = 7
	maximum = 32
Slowest flit = 6449
Fragmentation average = 0
	minimum = 0
	maximum = 0
Injected packet rate average = 0.01
	minimum = 0.004 (at node 12)
	maximum = 0.014 (at node 1)
Accepted packet rate average = 0.00975
	minimum = 0 (at node 0)
	maximum = 0.156 (at node 11)
Injected flit rate average = 0.01
	minimum = 0.004 (at node 12)
	maximum = 0.014 (at node 1)
Accepted flit rate average= 0.00975
	minimum = 0 (at node 0)
	maximum = 0.156 (at node 11)
Injected packet length average = 1
Accepted packet length average = 1
Total in-flight flits = 4 (0 measured)
latency change    = 0.0693193
throughput change = 0.0897436
Class 0:
Packet latency average = 19.4872
	minimum = 7
	maximum = 32
Network latency average = 19.4872
	minimum = 7
	maximum = 32
Slowest packet = 6611
Flit latency average = 19.4872
	minimum = 7
	maximum = 32
Slowest flit = 6611
Fragmentation average = 0
	minimum = 0
	maximum = 0
Injected packet rate average = 0.009625
	minimum = 0.004 (at node 1)
	maximum = 0.02 (at node 0)
Accepted packet rate average = 0.00975
	minimum = 0 (at node 0)
	maximum = 0.156 (at node 11)
Injected flit rate average = 0.009625
	minimum = 0.004 (at node 1)
	maximum = 0.02 (at node 0)
Accepted flit rate average= 0.00975
	minimum = 0 (at node 0)
	maximum = 0.156 (at node 11)
Injected packet length average = 1
Accepted packet length average = 1
Total in-flight flits = 3 (0 measured)
latency change    = 0.0246711
throughput change = 0
Warmed up ...Time used is 1500 cycles
Class 0:
Packet latency average = 20.908
	minimum = 7
	maximum = 35
Network latency average = 20.908
	minimum = 7
	maximum = 35
Slowest packet = 6720
Flit latency average = 21
	minimum = 7
	maximum = 35
Slowest flit = 6720
Fragmentation average = 0
	minimum = 0
	maximum = 0
Injected packet rate average = 0.011375
	minimum = 0.006 (at node 5)
	maximum = 0.022 (at node 4)
Accepted packet rate average = 0.01125
	minimum = 0 (at node 0)
	maximum = 0.18 (at node 11)
Injected flit rate average = 0.011375
	minimum = 0.006 (at node 5)
	maximum = 0.022 (at node 4)
Accepted flit rate average= 0.01125
	minimum = 0 (at node 0)
	maximum = 0.18 (at node 11)
Injected packet length average = 1
Accepted packet length average = 1
Total in-flight flits = 4 (4 measured)
latency change    = 0.0679579
throughput change = 0.133333
Class 0:
Packet latency average = 19.7143
	minimum = 7
	maximum = 35
Network latency average = 19.7143
	minimum = 7
	maximum = 35
Slowest packet = 6720
Flit latency average = 19.7836
	minimum = 7
	maximum = 35
Slowest flit = 6720
Fragmentation average = 0
	minimum = 0
	maximum = 0
Injected packet rate average = 0.0106875
	minimum = 0.007 (at node 0)
	maximum = 0.018 (at node 4)
Accepted packet rate average = 0.0106875
	minimum = 0 (at node 0)
	maximum = 0.171 (at node 11)
Injected flit rate average = 0.0106875
	minimum = 0.007 (at node 0)
	maximum = 0.018 (at node 4)
Accepted flit rate average= 0.0106875
	minimum = 0 (at node 0)
	maximum = 0.171 (at node 11)
Injected packet length average = 1
Accepted packet length average = 1
Total in-flight flits = 3 (3 measured)
latency change    = 0.0605531
throughput change = 0.0526316
Class 0:
Packet latency average = 19.5726
	minimum = 7
	maximum = 35
Network latency average = 19.5726
	minimum = 7
	maximum = 35
Slowest packet = 6720
Flit latency average = 19.6215
	minimum = 7
	maximum = 35
Slowest flit = 6720
Fragmentation average = 0
	minimum = 0
	maximum = 0
Injected packet rate average = 0.0103333
	minimum = 0.00666667 (at node 0)
	maximum = 0.0146667 (at node 2)
Accepted packet rate average = 0.0104583
	minimum = 0 (at node 0)
	maximum = 0.167333 (at node 11)
Injected flit rate average = 0.0103333
	minimum = 0.00666667 (at node 0)
	maximum = 0.0146667 (at node 2)
Accepted flit rate average= 0.0104583
	minimum = 0 (at node 0)
	maximum = 0.167333 (at node 11)
Injected packet length average = 1
Accepted packet length average = 1
Total in-flight flits = 0 (0 measured)
latency change    = 0.00723998
throughput change = 0.0219124
Class 0:
Packet latency average = 19.5814
	minimum = 7
	maximum = 35
Network latency average = 19.5814
	minimum = 7
	maximum = 35
Slowest packet = 6720
Flit latency average = 19.6167
	minimum = 7
	maximum = 35
Slowest flit = 6720
Fragmentation average = 0
	minimum = 0
	maximum = 0
Injected packet rate average = 0.0107812
	minimum = 0.0075 (at node 14)
	maximum = 0.015 (at node 8)
Accepted packet rate average = 0.0108437
	minimum = 0 (at node 0)
	maximum = 0.1735 (at node 11)
Injected flit rate average = 0.0107812
	minimum = 0.0075 (at node 14)
	maximum = 0.015 (at node 8)
Accepted flit rate average= 0.0108437
	minimum = 0 (at node 0)
	maximum = 0.1735 (at node 11)
Injected packet length average = 1
Accepted packet length average = 1
Total in-flight flits = 1 (1 measured)
latency change    = 0.000450157
throughput change = 0.0355427
Class 0:
Packet latency average = 19.4716
	minimum = 7
	maximum = 35
Network latency average = 19.4716
	minimum = 7
	maximum = 35
Slowest packet = 6720
Flit latency average = 19.5012
	minimum = 7
	maximum = 35
Slowest flit = 6720
Fragmentation average = 0
	minimum = 0
	maximum = 0
Injected packet rate average = 0.01065
	minimum = 0.0076 (at node 1)
	maximum = 0.0144 (at node 8)
Accepted packet rate average = 0.010625
	minimum = 0 (at node 0)
	maximum = 0.17 (at node 11)
Injected flit rate average = 0.01065
	minimum = 0.0076 (at node 1)
	maximum = 0.0144 (at node 8)
Accepted flit rate average= 0.010625
	minimum = 0 (at node 0)
	maximum = 0.17 (at node 11)
Injected packet length average = 1
Accepted packet length average = 1
Total in-flight flits = 4 (4 measured)
latency change    = 0.0056406
throughput change = 0.0205882
Draining all recorded packets ...
Draining remaining packets ...
Time taken is 4028 cycles
Class 0:
Packet latency average = 20.5303
	minimum = 7
	maximum = 33
Network latency average = 20.5303
	minimum = 7
	maximum = 33
Slowest packet = 7110
Flit latency average = 20.5303
	minimum = 7
	maximum = 33
Slowest flit = 7110
Fragmentation average = 0
	minimum = 0
	maximum = 0
Injected packet rate average = 0.009
	minimum = 0 (at node 2)
	maximum = 0.018 (at node 0)
Accepted packet rate average = 0.00825
	minimum = 0 (at node 0)
	maximum = 0.132 (at node 11)
Injected flit rate average = 0.009
	minimum = 0 (at node 2)
	maximum = 0.018 (at node 0)
Accepted flit rate average= 0.00825
	minimum = 0 (at node 0)
	maximum = 0.132 (at node 11)
Injected packet length average = 1
Accepted packet length average = 1
Total in-flight flits = 6 (0 measured)
latency change    = 1
throughput change = 1
Class 0:
Packet latency average = 19.8881
	minimum = 7
	maximum = 33
Network latency average = 19.8881
	minimum = 7
	maximum = 33
Slowest packet = 7110
Flit latency average = 19.8881
	minimum = 7
	maximum = 33
Slowest flit = 7110
Fragmentation average = 0
	minimum = 0
	maximum = 0
Injected packet rate average = 0.0093125
	minimum = 0.003 (at node 2)
	maximum = 0.018 (at node 4)
Accepted packet rate average = 0.0089375
	minimum = 0 (at node 0)
	maximum = 0.143 (at node 11)
Injected flit rate average = 0.0093125
	minimum = 0.003 (at node 2)
	maximum = 0.018 (at node 4)
Accepted flit rate average= 0.0089375
	minimum = 0 (at node 0)
	maximum = 0.143 (at node 11)
Injected packet length average = 1
Accepted packet length average = 1
Total in-flight flits = 6 (0 measured)
latency change    = 0.0322902
throughput change = 0.0769231
Class 0:
Packet latency average = 21.8356
	minimum = 12
	maximum = 33
Network latency average = 21.8356
	minimum = 12
	maximum = 33
Slowest packet = 7314
Flit latency average = 21.8356
	minimum = 12
	maximum = 33
Slowest flit = 7314
Fragmentation average = 0
	minimum = 0
	maximum = 0
Injected packet rate average = 0.008625
	minimum = 0 (at node 11)
	maximum = 0.014 (at node 1)
Accepted packet rate average = 0.009125
	minimum = 0 (at node 0)
	maximum = 0.146 (at node 11)
Injected flit rate average = 0.008625
	minimum = 0 (at node 11)
	maximum = 0.014 (at node 1)
Accepted flit rate average= 0.009125
	minimum = 0 (at node 0)
	maximum = 0.146 (at node 11)
Injected packet length average = 1
Accepted packet length average = 1
Total in-flight flits = 2 (0 measured)
latency change    = 0.0891894
throughput change = 0.0205479
Warmed up ...Time used is 1500 cycles
Class 0:
Packet latency average = 20.1282
	minimum = 7
	maximum = 32
Network latency average = 20.1282
	minimum = 7
	maximum = 32
Slowest packet = 7327
Flit latency average = 20.2375
	minimum = 7
	maximum = 32
Slowest flit = 7327
Fragmentation average = 0
	minimum = 0
	maximum = 0
Injected packet rate average = 0.01
	minimum = 0.002 (at node 9)
	maximum = 0.018 (at node 13)
Accepted packet rate average = 0.01
	minimum = 0 (at node 0)
	maximum = 0.16 (at node 11)
Injected flit rate average = 0.01
	minimum = 0.002 (at node 9)
	maximum = 0.018 (at node 13)
Accepted flit rate average= 0.01
	minimum = 0 (at node 0)
	maximum = 0.16 (at node 11)
Injected packet length average = 1
Accepted packet length average = 1
Total in-flight flits = 2 (2 measured)
latency change    = 0.0848268
throughput change = 0.0875
Class 0:
Packet latency average = 20.0126
	minimum = 7
	maximum = 33
Network latency average = 20.0126
	minimum = 7
	maximum = 33
Slowest packet = 7473
Flit latency average = 20.0683
	minimum = 7
	maximum = 33
Slowest flit = 7473
Fragmentation average = 0
	minimum = 0
	maximum = 0
Injected packet rate average = 0.010125
	minimum = 0.006 (at node 1)
	maximum = 0.015 (at node 15)
Accepted packet rate average = 0.0100625
	minimum = 0 (at node 0)
	maximum = 0.161 (at node 11)
Injected flit rate average = 0.010125
	minimum = 0.006 (at node 1)
	maximum = 0.015 (at node 15)
Accepted flit rate average= 0.0100625
	minimum = 0 (at node 0)
	maximum = 0.161 (at node 11)
Injected packet length average = 1
Accepted packet length average = 1
Total in-flight flits = 3 (3 measured)
latency change    = 0.00577769
throughput change = 0.00621118
Class 0:
Packet latency average = 19.8079
	minimum = 7
	maximum = 33
Network latency average = 19.8079
	minimum = 7
	maximum = 33
Slowest packet = 7473
Flit latency average = 19.8485
	minimum = 7
	maximum = 33
Slowest flit = 7473
Fragmentation average = 0
	minimum = 0
	maximum = 0
Injected packet rate average = 0.009875
	minimum = 0.006 (at node 1)
	maximum = 0.0133333 (at node 15)
Accepted packet rate average = 0.009625
	minimum = 0 (at node 0)
	maximum = 0.154 (at node 11)
Injected flit rate average = 0.009875
	minimum = 0.006 (at node 1)
	maximum = 0.0133333 (at node 15)
Accepted flit rate average= 0.009625
	minimum = 0 (at node 0)
[...]
Total in-flight flits = 0 (0 measured)
latency change    = 0.00968582
throughput change = 0.0186335
Class 0:
Packet latency average = 19.3902
	minimum = 7
	maximum = 32
Network latency average = 19.3902
	minimum = 7
	maximum = 32
Slowest packet = 31032
Flit latency average = 19.3902
	minimum = 7
	maximum = 32
Slowest flit = 31032
Fragmentation average = 0
	minimum = 0
	maximum = 0
Injected packet rate average = 0.01075
	minimum = 0.004 (at node 4)
	maximum = 0.016 (at node 1)
Accepted packet rate average = 0.01025
	minimum = 0 (at node 0)
	maximum = 0.164 (at node 11)
Injected flit rate average = 0.01075
	minimum = 0.004 (at node 4)
	maximum = 0.016 (at node 1)
Accepted flit rate average= 0.01025
	minimum = 0 (at node 0)
	maximum = 0.164 (at node 11)
Injected packet length average = 1
Accepted packet length average = 1
Total in-flight flits = 4 (0 measured)
latency change    = 0.0227978
throughput change = 0.0182927
Warmed up ...Time used is 1500 cycles
Class 0:
Packet latency average = 20.2917
	minimum = 7
	maximum = 32
Network latency average = 20.2917
	minimum = 7
	maximum = 32
Slowest packet = 31127
Flit latency average = 20.2632
	minimum = 7
	maximum = 32
Slowest flit = 31110
Fragmentation average = 0
	minimum = 0
	maximum = 0
Injected packet rate average = 0.009125
	minimum = 0.004 (at node 8)
	maximum = 0.018 (at node 4)
Accepted packet rate average = 0.0095
	minimum = 0 (at node 0)
	maximum = 0.152 (at node 11)
Injected flit rate average = 0.009125
	minimum = 0.004 (at node 8)
	maximum = 0.018 (at node 4)
Accepted flit rate average= 0.0095
	minimum = 0 (at node 0)
	maximum = 0.152 (at node 11)
Injected packet length average = 1
Accepted packet length average = 1
Total in-flight flits = 1 (1 measured)
latency change    = 0.0444233
throughput change = 0.0789474
Class 0:
Packet latency average = 19.4106
	minimum = 7
	maximum = 32
Network latency average = 19.4106
	minimum = 7
	maximum = 32
Slowest packet = 31127
Flit latency average = 19.4194
	minimum = 7
	maximum = 32
Slowest flit = 31110
Fragmentation average = 0
	minimum = 0
	maximum = 0
Injected packet rate average = 0.0098125
	minimum = 0.003 (at node 13)
	maximum = 0.017 (at node 4)
Accepted packet rate average = 0.0096875
	minimum = 0 (at node 0)
	maximum = 0.155 (at node 11)
Injected flit rate average = 0.0098125
	minimum = 0.003 (at node 13)
	maximum = 0.017 (at node 4)
Accepted flit rate average= 0.0096875
	minimum = 0 (at node 0)
	maximum = 0.155 (at node 11)
Injected packet length average = 1
Accepted packet length average = 1
Total in-flight flits = 6 (6 measured)
latency change    = 0.0453912
throughput change = 0.0193548
Class 0:
Packet latency average = 19.8442
	minimum = 7
	maximum = 32
Network latency average = 19.8442
	minimum = 7
	maximum = 32
Slowest packet = 31127
Flit latency average = 19.8426
	minimum = 7
	maximum = 32
Slowest flit = 31110
Fragmentation average = 0
	minimum = 0
	maximum = 0
Injected packet rate average = 0.00966667
	minimum = 0.00466667 (at node 7)
	maximum = 0.016 (at node 15)
Accepted packet rate average = 0.00979167
	minimum = 0 (at node 0)
	maximum = 0.156667 (at node 11)
Injected flit rate average = 0.00966667
	minimum = 0.00466667 (at node 7)
	maximum = 0.016 (at node 15)
Accepted flit rate average= 0.00979167
	minimum = 0 (at node 0)
	maximum = 0.156667 (at node 11)
Injected packet length average = 1
Accepted packet length average = 1
Total in-flight flits = 1 (1 measured)
latency change    = 0.0218482
throughput change = 0.0106383
Class 0:
Packet latency average = 19.4551
	minimum = 7
	maximum = 32
Network latency average = 19.4551
	minimum = 7
	maximum = 32
Slowest packet = 31127
Flit latency average = 19.4589
	minimum = 7
	maximum = 32
Slowest flit = 31110
Fragmentation average = 0
	minimum = 0
	maximum = 0
Injected packet rate average = 0.00984375
	minimum = 0.0045 (at node 8)
	maximum = 0.0155 (at node 15)
Accepted packet rate average = 0.009875
	minimum = 0 (at node 0)
	maximum = 0.158 (at node 11)
Injected flit rate average = 0.00984375
	minimum = 0.0045 (at node 8)
	maximum = 0.0155 (at node 15)
Accepted flit rate average= 0.009875
	minimum = 0 (at node 0)
	maximum = 0.158 (at node 11)
Injected packet length average = 1
Accepted packet length average = 1
Total in-flight flits = 3 (3 measured)
latency change    = 0.0199961
throughput change = 0.00843882
Draining all recorded packets ...
Draining remaining packets ...
Time taken is 3529 cycles
Class 0:
Packet latency average = 20.6867
	minimum = 7
	maximum = 38
Network latency average = 20.6867
	minimum = 7
	maximum = 38
Slowest packet = 31452
Flit latency average = 20.6867
	minimum = 7
	maximum = 38
Slowest flit = 31452
Fragmentation average = 0
	minimum = 0
	maximum = 0
Injected packet rate average = 0.01075
	minimum = 0.004 (at node 7)
	maximum = 0.024 (at node 12)
Accepted packet rate average = 0.010375
	minimum = 0 (at node 0)
	maximum = 0.166 (at node 11)
Injected flit rate average = 0.01075
	minimum = 0.004 (at node 7)
	maximum = 0.024 (at node 12)
Accepted flit rate average= 0.010375
	minimum = 0 (at node 0)
	maximum = 0.166 (at node 11)
Injected packet length average = 1
Accepted packet length average = 1
Total in-flight flits = 3 (0 measured)
latency change    = 1
throughput change = 1
Class 0:
Packet latency average = 19.6897
	minimum = 7
	maximum = 38
Network latency average = 19.6897
	minimum = 7
	maximum = 38
Slowest packet = 31452
Flit latency average = 19.6897
	minimum = 7
	maximum = 38
Slowest flit = 31452
Fragmentation average = 0
	minimum = 0
	maximum = 0
Injected packet rate average = 0.009375
	minimum = 0.005 (at node 7)
	maximum = 0.016 (at node 12)
Accepted packet rate average = 0.0090625
	minimum = 0 (at node 0)
	maximum = 0.145 (at node 11)
Injected flit rate average = 0.009375
	minimum = 0.005 (at node 7)
	maximum = 0.016 (at node 12)
Accepted flit rate average= 0.0090625
	minimum = 0 (at node 0)
	maximum = 0.145 (at node 11)
Injected packet length average = 1
Accepted packet length average = 1
Total in-flight flits = 5 (0 measured)
latency change    = 0.0506404
throughput change = 0.144828
Class 0:
Packet latency average = 18.8488
	minimum = 7
	maximum = 32
Network latency average = 18.8488
	minimum = 7
	maximum = 32
Slowest packet = 31576
Flit latency average = 18.8488
	minimum = 7
	maximum = 32
Slowest flit = 31576
Fragmentation average = 0
	minimum = 0
	maximum = 0
Injected packet rate average = 0.010625
	minimum = 0.004 (at node 3)
	maximum = 0.018 (at node 15)
Accepted packet rate average = 0.01075
	minimum = 0 (at node 0)
	maximum = 0.172 (at node 11)
Injected flit rate average = 0.010625
	minimum = 0.004 (at node 3)
	maximum = 0.018 (at node 15)
Accepted flit rate average= 0.01075
	minimum = 0 (at node 0)
	maximum = 0.172 (at node 11)
Injected packet length average = 1
Accepted packet length average = 1
Total in-flight flits = 4 (0 measured)
latency change    = 0.0446085
throughput change = 0.156977
Warmed up ...Time used is 1500 cycles
Class 0:
Packet latency average = 20.4306
	minimum = 7
	maximum = 32
Network latency average = 20.4306
	minimum = 7
	maximum = 32
Slowest packet = 31695
Flit latency average = 20.25
	minimum = 7
	maximum = 32
Slowest flit = 31695
Fragmentation average = 0
	minimum = 0
	maximum = 0
Injected packet rate average = 0.009375
	minimum = 0.002 (at node 9)
	maximum = 0.02 (at node 4)
Accepted packet rate average = 0.0095
	minimum = 0 (at node 0)
	maximum = 0.152 (at node 11)
Injected flit rate average = 0.009375
	minimum = 0.002 (at node 9)
	maximum = 0.02 (at node 4)
Accepted flit rate average= 0.0095
	minimum = 0 (at node 0)
	maximum = 0.152 (at node 11)
Injected packet length average = 1
Accepted packet length average = 1
Total in-flight flits = 3 (3 measured)
latency change    = 0.0774193
throughput change = 0.131579
Class 0:
Packet latency average = 19.9669
	minimum = 7
	maximum = 32
Network latency average = 19.9669
	minimum = 7
	maximum = 32
Slowest packet = 31695
Flit latency average = 19.8903
	minimum = 7
	maximum = 32
Slowest flit = 31695
Fragmentation average = 0
	minimum = 0
	maximum = 0
Injected packet rate average = 0.009875
	minimum = 0.005 (at node 5)
	maximum = 0.015 (at node 4)
Accepted packet rate average = 0.0096875
	minimum = 0 (at node 0)
	maximum = 0.155 (at node 11)
Injected flit rate average = 0.009875
	minimum = 0.005 (at node 5)
	maximum = 0.015 (at node 4)
Accepted flit rate average= 0.0096875
	minimum = 0 (at node 0)
	maximum = 0.155 (at node 11)
Injected packet length average = 1
Accepted packet length average = 1
Total in-flight flits = 7 (7 measured)
latency change    = 0.0232219
throughput change = 0.0193548
Class 0:
Packet latency average = 19.9336
	minimum = 7
	maximum = 34
Network latency average = 19.9336
	minimum = 7
	maximum = 34
Slowest packet = 31844
Flit latency average = 19.8857
	minimum = 7
	maximum = 34
Slowest flit = 31844
Fragmentation average = 0
	minimum = 0
	maximum = 0
Injected packet rate average = 0.0101667
	minimum = 0.00533333 (at node 5)
	maximum = 0.0153333 (at node 4)
Accepted packet rate average = 0.0102083
	minimum = 0 (at node 0)
	maximum = 0.163333 (at node 11)
Injected flit rate average = 0.0101667
	minimum = 0.00533333 (at node 5)
	maximum = 0.0153333 (at node 4)
Accepted flit rate average= 0.0102083
	minimum = 0 (at node 0)
	maximum = 0.163333 (at node 11)
Injected packet length average = 1
Accepted packet length average = 1
Total in-flight flits = 3 (3 measured)
latency change    = 0.00166941
throughput change = 0.0510204
Class 0:
Packet latency average = 20.0191
	minimum = 7
	maximum = 34
Network latency average = 20.0191
	minimum = 7
	maximum = 34
Slowest packet = 31844
Flit latency average = 19.9811
	minimum = 7
	maximum = 34
Slowest flit = 31844
Fragmentation average = 0
	minimum = 0
	maximum = 0
Injected packet rate average = 0.009875
	minimum = 0.006 (at node 8)
	maximum = 0.0145 (at node 2)
Accepted packet rate average = 0.0099375
	minimum = 0 (at node 0)
	maximum = 0.159 (at node 11)
Injected flit rate average = 0.009875
	minimum = 0.006 (at node 8)
	maximum = 0.0145 (at node 2)
Accepted flit rate average= 0.0099375
	minimum = 0 (at node 0)
	maximum = 0.159 (at node 11)
Injected packet length average = 1
Accepted packet length average = 1
Total in-flight flits = 2 (2 measured)
latency change    = 0.00427084
throughput change = 0.0272537
Class 0:
Packet latency average = 19.6802
	minimum = 7
	maximum = 34
Network latency average = 19.6802
	minimum = 7
	maximum = 34
Slowest packet = 31844
Flit latency average = 19.6533
	minimum = 7
	maximum = 34
Slowest flit = 31844
Fragmentation average = 0
	minimum = 0
	maximum = 0
Injected packet rate average = 0.00995
	minimum = 0.0068 (at node 5)
	maximum = 0.0144 (at node 3)
Accepted packet rate average = 0.00995
	minimum = 0 (at node 0)
	maximum = 0.1592 (at node 11)
Injected flit rate average = 0.00995
	minimum = 0.0068 (at node 5)
	maximum = 0.0144 (at node 3)
Accepted flit rate average= 0.00995
	minimum = 0 (at node 0)
	maximum = 0.1592 (at node 11)
Injected packet length average = 1
Accepted packet length average = 1
Total in-flight flits = 4 (4 measured)
latency change    = 0.0172206
throughput change = 0.00125628
Class 0:
Packet latency average = 19.7241
	minimum = 7
	maximum = 38
Network latency average = 19.7241
	minimum = 7
	maximum = 38
Slowest packet = 32091
Flit latency average = 19.7016
	minimum = 7
	maximum = 38
Slowest flit = 32091
Fragmentation average = 0
	minimum = 0
	maximum = 0
Injected packet rate average = 0.0101458
	minimum = 0.00633333 (at node 5)
	maximum = 0.0133333 (at node 3)
Accepted packet rate average = 0.010125
	minimum = 0 (at node 0)
	maximum = 0.162 (at node 11)
Injected flit rate average = 0.0101458
	minimum = 0.00633333 (at node 5)
	maximum = 0.0133333 (at node 3)
Accepted flit rate average= 0.010125
	minimum = 0 (at node 0)
	maximum = 0.162 (at node 11)
Injected packet length average = 1
Accepted packet length average = 1
Total in-flight flits = 5 (5 measured)
latency change    = 0.00222385
throughput change = 0.017284
Draining all recorded packets ...
Draining remaining packets ...
Time taken is 4528 cycles
Class 0:
Packet latency average = 19.1646
	minimum = 7
	maximum = 32
Network latency average = 19.1646
	minimum = 7
	maximum = 32
Slowest packet = 32161
Flit latency average = 19.1646
	minimum = 7
	maximum = 32
Slowest flit = 32161
Fragmentation average = 0
	minimum = 0
	maximum = 0
Injected packet rate average = 0.01
	minimum = 0.004 (at node 11)
	maximum = 0.016 (at node 10)
Accepted packet rate average = 0.009875
	minimum = 0 (at node 0)
	maximum = 0.158 (at node 11)
Injected flit rate average = 0.01
	minimum = 0.004 (at node 11)
	maximum = 0.016 (at node 10)
Accepted flit rate average= 0.009875
	minimum = 0 (at node 0)
	maximum = 0.158 (at node 11)
Injected packet length average = 1
Accepted packet length average = 1
Total in-flight flits = 1 (0 measured)
latency change    = 1
throughput change = 1
Class 0:
Packet latency average = 19.1126
	minimum = 7
	maximum = 32
Network latency average = 19.1126
	minimum = 7
	maximum = 32
Slowest packet = 32161
Flit latency average = 19.1126
	minimum = 7
	maximum = 32
Slowest flit = 32161
Fragmentation average = 0
	minimum = 0
	maximum = 0
Injected packet rate average = 0.00975
	minimum = 0.005 (at node 5)
	maximum = 0.017 (at node 15)
Accepted packet rate average = 0.0094375
	minimum = 0 (at node 0)
	maximum = 0.151 (at node 11)
Injected flit rate average = 0.00975
	minimum = 0.005 (at node 5)
	maximum = 0.017 (at node 15)
Accepted flit rate average= 0.0094375
	minimum = 0 (at node 0)
	maximum = 0.151 (at node 11)
Injected packet length average = 1
Accepted packet length average = 1
Total in-flight flits = 5 (0 measured)
latency change    = 0.00271937
throughput change = 0.0463576
Class 0:
Packet latency average = 19.0411
	minimum = 7
	maximum = 32
Network latency average = 19.0411
	minimum = 7
	maximum = 32
Slowest packet = 32306
Flit latency average = 19.0411
	minimum = 7
	maximum = 32
Slowest flit = 32306
Fragmentation average = 0
	minimum = 0
	maximum = 0
Injected packet rate average = 0.008875
	minimum = 0.002 (at node 6)
	maximum = 0.016 (at node 3)
Accepted packet rate average = 0.009125
	minimum = 0 (at node 0)
	maximum = 0.146 (at node 11)
Injected flit rate average = 0.008875
	minimum = 0.002 (at node 6)
	maximum = 0.016 (at node 3)
Accepted flit rate average= 0.009125
	minimum = 0 (at node 0)
	maximum = 0.146 (at node 11)
Injected packet length average = 1
Accepted packet length average = 1
Total in-flight flits = 3 (0 measured)
latency change    = 0.00375435
throughput change = 0.0342466
Warmed up ...Time used is 1500 cycles
Class 0:
Packet latency average = 19.3636
	minimum = 7
	maximum = 39
Network latency average = 19.3636
	minimum = 7
	maximum = 39
Slowest packet = 32392
Flit latency average = 19.3039
	minimum = 7
	maximum = 39
Slowest flit = 32392
Fragmentation average = 0
	minimum = 0
	maximum = 0
Injected packet rate average = 0.01275
	minimum = 0.004 (at node 7)
	maximum = 0.026 (at node 8)
Accepted packet rate average = 0.01275
	minimum = 0 (at node 0)
	maximum = 0.204 (at node 11)
Injected flit rate average = 0.01275
	minimum = 0.004 (at node 7)
	maximum = 0.026 (at node 8)
Accepted flit rate average= 0.01275
	minimum = 0 (at node 0)
	maximum = 0.204 (at node 11)
Injected packet length average = 1
Accepted packet length average = 1
Total in-flight flits = 3 (3 measured)
latency change    = 0.016657
throughput change = 0.284314
Class 0:
Packet latency average = 19.459
	minimum = 7
	maximum = 39
Network latency average = 19.459
	minimum = 7
	maximum = 39
Slowest packet = 32392
Flit latency average = 19.4247
	minimum = 7
	maximum = 39
Slowest flit = 32392
Fragmentation average = 0
	minimum = 0
	maximum = 0
Injected packet rate average = 0.011625
	minimum = 0.005 (at node 9)
	maximum = 0.018 (at node 8)
Accepted packet rate average = 0.011625
	minimum = 0 (at node 0)
	maximum = 0.186 (at node 11)
Injected flit rate average = 0.011625
	minimum = 0.005 (at node 9)
	maximum = 0.018 (at node 8)
Accepted flit rate average= 0.011625
	minimum = 0 (at node 0)
	maximum = 0.186 (at node 11)
Injected packet length average = 1
Accepted packet length average = 1
Total in-flight flits = 3 (3 measured)
latency change    = 0.00490159
throughput change = 0.0967742
Class 0:
Packet latency average = 19.8377
	minimum = 7
	maximum = 39
Network latency average = 19.8377
	minimum = 7
	maximum = 39
Slowest packet = 32392
Flit latency average = 19.8097
	minimum = 7
	maximum = 39
Slowest flit = 32392
Fragmentation average = 0
	minimum = 0
	maximum = 0
Injected packet rate average = 0.011125
	minimum = 0.006 (at node 9)
	maximum = 0.016 (at node 8)
Accepted packet rate average = 0.0111667
	minimum = 0 (at node 0)
	maximum = 0.178667 (at node 11)
Injected flit rate average = 0.011125
	minimum = 0.006 (at node 9)
	maximum = 0.016 (at node 8)
Accepted flit rate average= 0.0111667
	minimum = 0 (at node 0)
	maximum = 0.178667 (at node 11)
Injected packet length average = 1
Accepted packet length average = 1
Total in-flight flits = 2 (2 measured)
latency change    = 0.0190909
throughput change = 0.0410448
Class 0:
Packet latency average = 19.7778
	minimum = 7
	maximum = 39
Network latency average = 19.7778
	minimum = 7
	maximum = 39
Slowest packet = 32392
Flit latency average = 19.7576
	minimum = 7
	maximum = 39
Slowest flit = 32392
Fragmentation average = 0
	minimum = 0
	maximum = 0
Injected packet rate average = 0.0114062
	minimum = 0.0075 (at node 9)
	maximum = 0.0145 (at node 8)
Accepted packet rate average = 0.0113437
	minimum = 0 (at node 0)
	maximum = 0.1815 (at node 11)
Injected flit rate average = 0.0114062
	minimum = 0.0075 (at node 9)
	maximum = 0.0145 (at node 8)
Accepted flit rate average= 0.0113437
	minimum = 0 (at node 0)
	maximum = 0.1815 (at node 11)
Injected packet length average = 1
Accepted packet length average = 1
Total in-flight flits = 5 (5 measured)
latency change    = 0.00303159
throughput change = 0.0156107
Class 0:
Packet latency average = 19.6778
	minimum = 7
	maximum = 39
Network latency average = 19.6778
	minimum = 7
	maximum = 39
Slowest packet = 32392
Flit latency average = 19.6623
	minimum = 7
	maximum = 39
Slowest flit = 32392
Fragmentation average = 0
	minimum = 0
	maximum = 0
Injected packet rate average = 0.01135
	minimum = 0.0084 (at node 9)
	maximum = 0.014 (at node 3)
Accepted packet rate average = 0.011325
	minimum = 0 (at node 0)
	maximum = 0.1812 (at node 11)
Injected flit rate average = 0.01135
	minimum = 0.0084 (at node 9)
	maximum = 0.014 (at node 3)
Accepted flit rate average= 0.011325
	minimum = 0 (at node 0)
	maximum = 0.1812 (at node 11)
Injected packet length average = 1
Accepted packet length average = 1
Total in-flight flits = 4 (4 measured)
latency change    = 0.00508187
throughput change = 0.00165563
Draining all recorded packets ...
Draining remaining packets ...
Time taken is 4040 cycles
====== Overall Traffic Statistics ======
====== Traffic class 0 ======
Packet latency average = 19.632 (50 samples)
	minimum = 7 (50 samples)
	maximum = 34.52 (50 samples)
Network latency average = 19.632 (50 samples)
	minimum = 7 (50 samples)
	maximum = 34.52 (50 samples)
Flit latency average = 19.6443 (50 samples)
	minimum = 7 (50 samples)
	maximum = 34.54 (50 samples)
Fragmentation average = 0 (50 samples)
	minimum = 0 (50 samples)
	maximum = 0 (50 samples)
Injected packet rate average = 0.0100939 (50 samples)
	minimum = 0.00663038 (50 samples)
	maximum = 0.0136485 (50 samples)
Accepted packet rate average = 0.0100972 (50 samples)
	minimum = 0 (50 samples)
	maximum = 0.161555 (50 samples)
Injected flit rate average = 0.0100939 (50 samples)
	minimum = 0.00663038 (50 samples)
	maximum = 0.0136485 (50 samples)
Accepted flit rate average = 0.0100972 (50 samples)
	minimum = 0 (50 samples)
	maximum = 0.161555 (50 samples)
Injected packet size average = 1 (50 samples)
Accepted packet size average = 1 (50 samples)
Hops average = 3.49379 (50 samples)
Total run time 4.54954
