BEGIN Configuration File: /tmp/tmp0uifyyl_.cfg
topology = mesh;
k = 4;
n = 2;
routing_function = dor;
num_vcs = 4;
vc_buf_size = 4;
wait_for_tail_credit = 1;
vc_allocator = islip;
sw_allocator = islip;
alloc_iters = 1;
credit_delay = 2;
routing_delay = 1;
vc_alloc_delay = 1;
sw_alloc_delay = 1;
input_speedup = 2;
output_speedup = 1;
internal_speedup = 1.0;
traffic = uniform;
packet_size = 1;
sim_type = latency;
injection_rate = 0.01;
warmup_periods = 3;
sample_period = 500;
sim_count = 50;
seed = 2;
link_failures = 7;
fail_seed = 202;

END Configuration File: /tmp/tmp0uifyyl_.cfg
failure at node 4, channel 2 (1/7)
failure at node 13, channel 0 (2/7)
failure at node 6, channel 1 (3/7)
failure at node 11, channel 3 (4/7)
failure at node 9, channel 2 (5/7)
failure at node 15, channel 3 (6/7)
failure at node 4, channel 3 (7/7)
Class 0:
Packet latency average = 17.9524
	minimum = 7
	maximum = 32
Network latency average = 17.9524
	minimum = 7
	maximum = 32
Slowest packet = 20
Flit latency average = 17.9524
	minimum = 7
	maximum = 32
Slowest flit = 20
Fragmentation average = 0
	minimum = 0
	maximum = 0
Injected packet rate average = 0.008125
	minimum = 0 (at node 9)
	maximum = 0.014 (at node 5)
Accepted packet rate average = 0.007875
	minimum = 0.002 (at node 5)
	maximum = 0.02 (at node 9)
Injected flit rate average = 0.008125
	minimum = 0 (at node 9)
	maximum = 0.014 (at node 5)
Accepted flit rate average= 0.007875
	minimum = 0.002 (at node 5)
	maximum = 0.02 (at node 9)
Injected packet length average = 1
Accepted packet length average = 1
Total in-flight flits = 2 (0 measured)
latency change    = 1
throughput change = 1
Class 0:
Packet latency average = 18.1136
	minimum = 7
	maximum = 32
Network latency average = 18.1136
	minimum = 7
	maximum = 32
Slowest packet = 20
Flit latency average = 18.1136
	minimum = 7
	maximum = 32
Slowest flit = 20
Fragmentation average = 0
	minimum = 0
	maximum = 0
Injected packet rate average = 0.008625
	minimum = 0.003 (at node 2)
	maximum = 0.015 (at node 13)
Accepted packet rate average = 0.00825
	minimum = 0.004 (at node 6)
	maximum = 0.015 (at node 9)
Injected flit rate average = 0.008625
	minimum = 0.003 (at node 2)
	maximum = 0.015 (at node 13)
Accepted flit rate average= 0.00825
	minimum = 0.004 (at node 6)
	maximum = 0.015 (at node 9)
Injected packet length average = 1
Accepted packet length average = 1
Total in-flight flits = 6 (0 measured)
latency change    = 0.00890243
throughput change = 0.0454545
Class 0:
Packet latency average = 19.2619
	minimum = 7
	maximum = 37
Network latency average = 19.2619
	minimum = 7
	maximum = 37
Slowest packet = 187
Flit latency average = 19.2619
	minimum = 7
	maximum = 37
Slowest flit = 187
Fragmentation average = 0
	minimum = 0
	maximum = 0
Injected packet rate average = 0.01
	minimum = 0.002 (at node 3)
	maximum = 0.022 (at node 13)
Accepted packet rate average = 0.0105
	minimum = 0.006 (at node 5)
	maximum = 0.016 (at node 15)
Injected flit rate average = 0.01
	minimum = 0.002 (at node 3)
	maximum = 0.022 (at node 13)
Accepted flit rate average= 0.0105
	minimum = 0.006 (at node 5)
	maximum = 0.016 (at node 15)
Injected packet length average = 1
Accepted packet length average = 1
Total in-flight flits = 2 (0 measured)
latency change    = 0.0596134
throughput change = 0.214286
Warmed up ...Time used is 1500 cycles
Class 0:
Packet latency average = 19.2209
	minimum = 7
	maximum = 32
Network latency average = 19.2209
	minimum = 7
	maximum = 32
Slowest packet = 223
Flit latency average = 19.4545
	minimum = 7
	maximum = 37
Slowest flit = 216
Fragmentation average = 0
	minimum = 0
	maximum = 0
Injected packet rate average = 0.01125
	minimum = 0.004 (at node 15)
	maximum = 0.022 (at node 10)
Accepted packet rate average = 0.011
	minimum = 0.004 (at node 3)
	maximum = 0.016 (at node 4)
Injected flit rate average = 0.01125
	minimum = 0.004 (at node 15)
	maximum = 0.022 (at node 10)
Accepted flit rate average= 0.011
	minimum = 0.004 (at node 3)
	maximum = 0.016 (at node 4)
Injected packet length average = 1
Accepted packet length average = 1
Total in-flight flits = 4 (4 measured)
latency change    = 0.00213177
throughput change = 0.0454545
Class 0:
Packet latency average = 19.1807
	minimum = 7
	maximum = 32
Network latency average = 19.1807
	minimum = 7
	maximum = 32
Slowest packet = 223
Flit latency average = 19.3036
	minimum = 7
	maximum = 37
Slowest flit = 216
Fragmentation average = 0
	minimum = 0
	maximum = 0
Injected packet rate average = 0.0105
	minimum = 0.006 (at node 2)
	maximum = 0.015 (at node 3)
Accepted packet rate average = 0.0105
	minimum = 0.004 (at node 12)
	maximum = 0.014 (at node 6)
Injected flit rate average = 0.0105
	minimum = 0.006 (at node 2)
	maximum = 0.015 (at node 3)
Accepted flit rate average= 0.0105
	minimum = 0.004 (at node 12)
	maximum = 0.014 (at node 6)
Injected packet length average = 1
Accepted packet length average = 1
Total in-flight flits = 2 (2 measured)
latency change    = 0.00209624
throughput change = 0.047619
Class 0:
Packet latency average = 19.4553
	minimum = 7
	maximum = 37
Network latency average = 19.4553
	minimum = 7
	maximum = 37
Slowest packet = 428
Flit latency average = 19.5401
	minimum = 7
	maximum = 37
Slowest flit = 216
Fragmentation average = 0
	minimum = 0
	maximum = 0
Injected packet rate average = 0.00983333
	minimum = 0.00666667 (at node 1)
	maximum = 0.0153333 (at node 3)
Accepted packet rate average = 0.009875
	minimum = 0.00466667 (at node 12)
	maximum = 0.0146667 (at node 1)
Injected flit rate average = 0.00983333
	minimum = 0.00666667 (at node 1)
	maximum = 0.0153333 (at node 3)
Accepted flit rate average= 0.009875
	minimum = 0.00466667 (at node 12)
	maximum = 0.0146667 (at node 1)
Injected packet length average = 1
Accepted packet length average = 1
Total in-flight flits = 1 (1 measured)
latency change    = 0.0141142
throughput change = 0.0632911
Class 0:
Packet latency average = 19.3622
	minimum = 7
	maximum = 37
Network latency average = 19.3622
	minimum = 7
	maximum = 37
Slowest packet = 428
Flit latency average = 19.4246
	minimum = 7
	maximum = 37
Slowest flit = 216
Fragmentation average = 0
	minimum = 0
	maximum = 0
Injected packet rate average = 0.0101875
	minimum = 0.0065 (at node 8)
	maximum = 0.014 (at node 10)
Accepted packet rate average = 0.0101563
	minimum = 0.005 (at node 12)
	maximum = 0.015 (at node 1)
Injected flit rate average = 0.0101875
	minimum = 0.0065 (at node 8)
	maximum = 0.014 (at node 10)
Accepted flit rate average= 0.0101563
	minimum = 0.005 (at node 12)
	maximum = 0.015 (at node 1)
Injected packet length average = 1
Accepted packet length average = 1
Total in-flight flits = 3 (3 measured)
latency change    = 0.00480782
throughput change = 0.0276923
Class 0:
Packet latency average = 19.3407
	minimum = 7
	maximum = 37
Network latency average = 19.3407
	minimum = 7
	maximum = 37
Slowest packet = 428
Flit latency average = 19.3902
	minimum = 7
	maximum = 37
Slowest flit = 216
Fragmentation average = 0
	minimum = 0
	maximum = 0
Injected packet rate average = 0.010275
	minimum = 0.0076 (at node 1)
	maximum = 0.0136 (at node 12)
Accepted packet rate average = 0.01025
	minimum = 0.0056 (at node 12)
	maximum = 0.0148 (at node 1)
Injected flit rate average = 0.010275
	minimum = 0.0076 (at node 1)
	maximum = 0.0136 (at node 12)
Accepted flit rate average= 0.01025
	minimum = 0.0056 (at node 12)
	maximum = 0.0148 (at node 1)
Injected packet length average = 1
Accepted packet length average = 1
Total in-flight flits = 3 (3 measured)
latency change    = 0.00111386
throughput change = 0.00914634
Class 0:
Packet latency average = 19.4254
	minimum = 7
	maximum = 37
Network latency average = 19.4254
	minimum = 7
	maximum = 37
Slowest packet = 428
Flit latency average = 19.4664
	minimum = 7
	maximum = 37
Slowest flit = 216
Fragmentation average = 0
	minimum = 0
	maximum = 0
Injected packet rate average = 0.0103125
	minimum = 0.00766667 (at node 1)
	maximum = 0.0136667 (at node 10)
Accepted packet rate average = 0.0102292
	minimum = 0.00733333 (at node 2)
	maximum = 0.0136667 (at node 1)
Injected flit rate average = 0.0103125
	minimum = 0.00766667 (at node 1)
	maximum = 0.0136667 (at node 10)
Accepted flit rate average= 0.0102292
	minimum = 0.00733333 (at node 2)
	maximum = 0.0136667 (at node 1)
Injected packet length average = 1
Accepted packet length average = 1
Total in-flight flits = 6 (6 measured)
latency change    = 0.00435882
throughput change = 0.00203666
Draining all recorded packets ...
Draining remaining packets ...
Time taken is 4536 cycles
Class 0:
Packet latency average = 17.8824
	minimum = 7
	maximum = 37
Network latency average = 17.8824
	minimum = 7
	maximum = 37
Slowest packet = 770
Flit latency average = 17.8824
	minimum = 7
	maximum = 37
Slowest flit = 770
Fragmentation average = 0
	minimum = 0
	maximum = 0
Injected packet rate average = 0.00875
	minimum = 0.004 (at node 13)
	maximum = 0.026 (at node 5)
Accepted packet rate average = 0.0085
	minimum = 0.004 (at node 2)
	maximum = 0.014 (at node 4)
Injected flit rate average = 0.00875
	minimum = 0.004 (at node 13)
	maximum = 0.026 (at node 5)
Accepted flit rate average= 0.0085
	minimum = 0.004 (at node 2)
	maximum = 0.014 (at node 4)
Injected packet length average = 1
Accepted packet length average = 1
Total in-flight flits = 2 (0 measured)
latency change    = 1
throughput change = 1
Class 0:
Packet latency average = 19
	minimum = 7
	maximum = 37
Network latency average = 19
	minimum = 7
	maximum = 37
Slowest packet = 770
Flit latency average = 19
	minimum = 7
	maximum = 37
Slowest flit = 770
Fragmentation average = 0
	minimum = 0
	maximum = 0
Injected packet rate average = 0.01
	minimum = 0.005 (at node 2)
	maximum = 0.018 (at node 5)
Accepted packet rate average = 0.01
	minimum = 0.005 (at node 6)
	maximum = 0.013 (at node 10)
Injected flit rate average = 0.01
	minimum = 0.005 (at node 2)
	maximum = 0.018 (at node 5)
Accepted flit rate average= 0.01
	minimum = 0.005 (at node 6)
	maximum = 0.013 (at node 10)
Injected packet length average = 1
Accepted packet length average = 1
Total in-flight flits = 0 (0 measured)
latency change    = 0.0588235
throughput change = 0.15
Class 0:
Packet latency average = 20.1507
	minimum = 7
	maximum = 37
Network latency average = 20.1507
	minimum = 7
	maximum = 37
Slowest packet = 875
Flit latency average = 20.1507
	minimum = 7
	maximum = 37
Slowest flit = 875
Fragmentation average = 0
	minimum = 0
	maximum = 0
Injected packet rate average = 0.009625
	minimum = 0.004 (at node 1)
	maximum = 0.016 (at node 9)
Accepted packet rate average = 0.009125
	minimum = 0.002 (at node 11)
	maximum = 0.018 (at node 1)
Injected flit rate average = 0.009625
	minimum = 0.004 (at node 1)
	maximum = 0.016 (at node 9)
Accepted flit rate average= 0.009125
	minimum = 0.002 (at node 11)
	maximum = 0.018 (at node 1)
Injected packet length average = 1
Accepted packet length average = 1
Total in-flight flits = 4 (0 measured)
latency change    = 0.057104
throughput change = 0.0958904
Warmed up ...Time used is 1500 cycles
Class 0:
Packet latency average = 20.2317
	minimum = 7
	maximum = 37
Network latency average = 20.2317
	minimum = 7
	maximum = 37
Slowest packet = 962
Flit latency average = 20.1977
	minimum = 7
	maximum = 37
Slowest flit = 962
Fragmentation average = 0
	minimum = 0
	maximum = 0
Injected packet rate average = 0.01075
	minimum = 0.004 (at node 6)
	maximum = 0.016 (at node 5)
Accepted packet rate average = 0.01075
	minimum = 0.004 (at node 9)
	maximum = 0.018 (at node 0)
Injected flit rate average = 0.01075
	minimum = 0.004 (at node 6)
	maximum = 0.016 (at node 5)
Accepted flit rate average= 0.01075
	minimum = 0.004 (at node 9)
	maximum = 0.018 (at node 0)
Injected packet length average = 1
Accepted packet length average = 1
Total in-flight flits = 4 (4 measured)
latency change    = 0.00400472
throughput change = 0.151163
Class 0:
Packet latency average = 20.0526
	minimum = 7
	maximum = 37
Network latency average = 20.0526
	minimum = 7
	maximum = 37
Slowest packet = 962
Flit latency average = 20.04
	minimum = 7
	maximum = 37
Slowest flit = 962
Fragmentation average = 0
	minimum = 0
	maximum = 0
Injected packet rate average = 0.011
	minimum = 0.007 (at node 6)
	maximum = 0.015 (at node 5)
Accepted packet rate average = 0.0109375
	minimum = 0.004 (at node 11)
	maximum = 0.018 (at node 0)
Injected flit rate average = 0.011
	minimum = 0.007 (at node 6)
	maximum = 0.015 (at node 5)
Accepted flit rate average= 0.0109375
	minimum = 0.004 (at node 11)
	maximum = 0.018 (at node 0)
Injected packet length average = 1
Accepted packet length average = 1
Total in-flight flits = 5 (5 measured)
latency change    = 0.00893029
throughput change = 0.0171429
Class 0:
Packet latency average = 20.1508
	minimum = 7
	maximum = 38
Network latency average = 20.1508
	minimum = 7
	maximum = 38
Slowest packet = 1143
Flit latency average = 20.1406
	minimum = 7
	maximum = 38
Slowest flit = 1143
Fragmentation average = 0
	minimum = 0
	maximum = 0
Injected packet rate average = 0.0107083
	minimum = 0.00866667 (at node 0)
	maximum = 0.0153333 (at node 5)
Accepted packet rate average = 0.0106667
	minimum = 0.006 (at node 11)
	maximum = 0.016 (at node 8)
Injected flit rate average = 0.0107083
	minimum = 0.00866667 (at node 0)
	maximum = 0.0153333 (at node 5)
Accepted flit rate average= 0.0106667
	minimum = 0.006 (at node 11)
	maximum = 0.016 (at node 8)
Injected packet length average = 1
Accepted packet length average = 1
Total in-flight flits = 5 (5 measured)
latency change    = 0.00487137
throughput change = 0.0253906
Class 0:
Packet latency average = 20.2188
	minimum = 7
	maximum = 38
Network latency average = 20.2188
	minimum = 7
	maximum = 38
Slowest packet = 1143
Flit latency average = 20.2102
	minimum = 7
	maximum = 38
Slowest flit = 1143
Fragmentation average = 0
	minimum = 0
	maximum = 0
Injected packet rate average = 0.0104375
	minimum = 0.008 (at node 6)
	maximum = 0.015 (at node 3)
Accepted packet rate average = 0.0104063
	minimum = 0.006 (at node 11)
	maximum = 0.0155 (at node 0)
Injected flit rate average = 0.0104375
	minimum = 0.008 (at node 6)
	maximum = 0.015 (at node 3)
Accepted flit rate average= 0.0104063
	minimum = 0.006 (at node 11)
	maximum = 0.0155 (at node 0)
Injected packet length average = 1
Accepted packet length average = 1
Total in-flight flits = 5 (5 measured)
latency change    = 0.00336574
throughput change = 0.025025
Draining all recorded packets ...
Draining remaining packets ...
Time taken is 3532 cycles
Class 0:
Packet latency average = 19.6316
	minimum = 7
	maximum = 37
Network latency average = 19.6316
	minimum = 7
	maximum = 37
Slowest packet = 1330
Flit latency average = 19.6316
	minimum = 7
	maximum = 37
Slowest flit = 1330
Fragmentation average = 0
	minimum = 0
	maximum = 0
Injected packet rate average = 0.00975
	minimum = 0.002 (at node 11)
	maximum = 0.014 (at node 1)
Accepted packet rate average = 0.0095
	minimum = 0.002 (at node 0)
	maximum = 0.016 (at node 5)
Injected flit rate average = 0.00975
	minimum = 0.002 (at node 11)
	maximum = 0.014 (at node 1)
Accepted flit rate average= 0.0095
	minimum = 0.002 (at node 0)
	maximum = 0.016 (at node 5)
Injected packet length average = 1
Accepted packet length average = 1
Total in-flight flits = 2 (0 measured)
latency change    = 1
throughput change = 1
Class 0:
Packet latency average = 19.4512
	minimum = 7
	maximum = 37
Network latency average = 19.4512
	minimum = 7
	maximum = 37
Slowest packet = 1330
Flit latency average = 19.4512
	minimum = 7
	maximum = 37
Slowest flit = 1330
Fragmentation average = 0
	minimum = 0
	maximum = 0
Injected packet rate average = 0.0105625
	minimum = 0.006 (at node 5)
	maximum = 0.015 (at node 15)
Accepted packet rate average = 0.01025
	minimum = 0.003 (at node 0)
	maximum = 0.015 (at node 5)
Injected flit rate average = 0.0105625
	minimum = 0.006 (at node 5)
	maximum = 0.015 (at node 15)
Accepted flit rate average= 0.01025
	minimum = 0.003 (at node 0)
	maximum = 0.015 (at node 5)
Injected packet length average = 1
Accepted packet length average = 1
Total in-flight flits = 5 (0 measured)
latency change    = 0.0092724
throughput change = 0.0731707
Class 0:
Packet latency average = 19.0213
	minimum = 7
	maximum = 37
Network latency average = 19.0213
	minimum = 7
	maximum = 37
Slowest packet = 1447
Flit latency average = 19.0213
	minimum = 7
	maximum = 37
Slowest flit = 1447
Fragmentation average = 0
	minimum = 0
	maximum = 0
Injected packet rate average = 0.0115
	minimum = 0 (at node 7)
	maximum = 0.022 (at node 0)
Accepted packet rate average = 0.01175
	minimum = 0.002 (at node 4)
	maximum = 0.018 (at node 3)
Injected flit rate average = 0.0115
	minimum = 0 (at node 7)
	maximum = 0.022 (at node 0)
Accepted flit rate average= 0.01175
	minimum = 0.002 (at node 4)
	maximum = 0.018 (at node 3)
Injected packet length average = 1
Accepted packet length average = 1
Total in-flight flits = 3 (0 measured)
latency change    = 0.0226033
throughput change = 0.12766
Warmed up ...Time used is 1500 cycles
Class 0:
Packet latency average = 20.0319
	minimum = 7
	maximum = 37
Network latency average = 20.0319
	minimum = 7
	maximum = 37
Slowest packet = 1572
Flit latency average = 20.0928
	minimum = 7
	maximum = 37
Slowest flit = 1572
Fragmentation average = 0
	minimum = 0
	maximum = 0
Injected packet rate average = 0.01175
	minimum = 0.004 (at node 1)
	maximum = 0.022 (at node 0)
Accepted packet rate average = 0.012125
	minimum = 0.006 (at node 7)
	maximum = 0.026 (at node 6)
Injected flit rate average = 0.01175
	minimum = 0.004 (at node 1)
	maximum = 0.022 (at node 0)
Accepted flit rate average= 0.012125
	minimum = 0.006 (at node 7)
	maximum = 0.026 (at node 6)
Injected packet length average = 1
Accepted packet length average = 1
Total in-flight flits = 0 (0 measured)
latency change    = 0.0504514
throughput change = 0.0309278
Class 0:
Packet latency average = 19.4277
	minimum = 7
	maximum = 37
Network latency average = 19.4277
	minimum = 7
	maximum = 37
Slowest packet = 1572
Flit latency average = 19.4716
	minimum = 7
	maximum = 37
Slowest flit = 1572
Fragmentation average = 0
	minimum = 0
	maximum = 0
Injected packet rate average = 0.0110625
	minimum = 0.005 (at node 3)
	maximum = 0.019 (at node 14)
Accepted packet rate average = 0.011
	minimum = 0.007 (at node 13)
	maximum = 0.016 (at node 6)
Injected flit rate average = 0.0110625
	minimum = 0.005 (at node 3)
	maximum = 0.019 (at node 14)
Accepted flit rate average= 0.011
	minimum = 0.007 (at node 13)
	maximum = 0.016 (at node 6)
Injected packet length average = 1
Accepted packet length average = 1
Total in-flight flits = 4 (4 measured)
latency change    = 0.0310983
throughput change = 0.102273
Class 0:
Packet latency average = 19.4627
	minimum = 7
	maximum = 37
Network latency average = 19.4627
	minimum = 7
	maximum = 37
Slowest packet = 1572
Flit latency average = 19.4908
	minimum = 7
	maximum = 37
Slowest flit = 1572
Fragmentation average = 0
	minimum = 0
	maximum = 0
Injected packet rate average = 0.0112917
	minimum = 0.00466667 (at node 1)
	maximum = 0.018 (at node 6)
Accepted packet rate average = 0.0112917
	minimum = 0.008 (at node 13)
	maximum = 0.0153333 (at node 2)
Injected flit rate average = 0.0112917
	minimum = 0.00466667 (at node 1)
	maximum = 0.018 (at node 6)
Accepted flit rate average= 0.0112917
	minimum = 0.008 (at node 13)
	maximum = 0.0153333 (at node 2)
Injected packet length average = 1
Accepted packet length average = 1
Total in-flight flits = 3 (3 measured)
latency change    = 0.00179528
throughput change = 0.0258303
Class 0:
Packet latency average = 19.6499
	minimum = 7
	maximum = 37
Network latency average = 19.6499
	minimum = 7
	maximum = 37
Slowest packet = 1572
Flit latency average = 19.6694
	minimum = 7
	maximum = 37
Slowest flit = 1572
Fragmentation average = 0
	minimum = 0
	maximum = 0
Injected packet rate average = 0.0112812
	minimum = 0.0065 (at node 9)
	maximum = 0.0155 (at node 6)
Accepted packet rate average = 0.01125
	minimum = 0.009 (at node 12)
	maximum = 0.0135 (at node 6)
Injected flit rate average = 0.0112812
	minimum = 0.0065 (at node 9)
	maximum = 0.0155 (at node 6)
Accepted flit rate average= 0.01125
	minimum = 0.009 (at node 12)
	maximum = 0.0135 (at node 6)
Injected packet length average = 1
Accepted packet length average = 1
Total in-flight flits = 4 (4 measured)
latency change    = 0.00952543
throughput change = 0.0037037
Class 0:
Packet latency average = 19.5669
	minimum = 7
	maximum = 37
Network latency average = 19.5669
	minimum = 7
	maximum = 37
Slowest packet = 1572
Flit latency average = 19.5833
	minimum = 7
	maximum = 37
Slowest flit = 1572
Fragmentation average = 0
	minimum = 0
	maximum = 0
Injected packet rate average = 0.011075
	minimum = 0.0056 (at node 9)
	maximum = 0.0144 (at node 6)
Accepted packet rate average = 0.0111
	minimum = 0.0088 (at node 9)
	maximum = 0.0144 (at node 8)
Injected flit rate average = 0.011075
	minimum = 0.0056 (at node 9)
	maximum = 0.0144 (at node 6)
Accepted flit rate average= 0.0111
	minimum = 0.0088 (at node 9)
	maximum = 0.0144 (at node 8)
Injected packet length average = 1
Accepted packet length average = 1
Total in-flight flits = 2 (2 measured)
latency change    = 0.00424015
throughput change = 0.0135135
Draining all recorded packets ...
Draining remaining packets ...
Time taken is 4030 cycles
Class 0:
Packet latency average = 20.169
	minimum = 7
	maximum = 37
Network latency average = 20.169
	minimum = 7
	maximum = 37
Slowest packet = 2036
Flit latency average = 20.169
	minimum = 7
	maximum = 37
Slowest flit = 2036
Fragmentation average = 0
	minimum = 0
	maximum = 0
Injected packet rate average = 0.00925
	minimum = 0.002 (at node 10)
	maximum = 0.014 (at node 6)
Accepted packet rate average = 0.008875
	minimum = 0.004 (at node 5)
	maximum = 0.016 (at node 4)
Injected flit rate average = 0.00925
	minimum = 0.002 (at node 10)
	maximum = 0.014 (at node 6)
Accepted flit rate average= 0.008875
	minimum = 0.004 (at node 5)
	maximum = 0.016 (at node 4)
Injected packet length average = 1
Accepted packet length average = 1
Total in-flight flits = 3 (0 measured)
latency change    = 1
throughput change = 1
Class 0:
Packet latency average = 20.0909
	minimum = 7
	maximum = 37
Network latency average = 20.0909
	minimum = 7
	maximum = 37
Slowest packet = 2036
Flit latency average = 20.0909
	minimum = 7
	maximum = 37
Slowest flit = 2036
Fragmentation average = 0
	minimum = 0
	maximum = 0
Injected packet rate average = 0.0091875
	minimum = 0.003 (at node 10)
	maximum = 0.014 (at node 0)
Accepted packet rate average = 0.0089375
	minimum = 0.003 (at node 5)
	maximum = 0.016 (at node 9)
Injected flit rate average = 0.0091875
	minimum = 0.003 (at node 10)
	maximum = 0.014 (at node 0)
Accepted flit rate average= 0.0089375
	minimum = 0.003 (at node 5)
	maximum = 0.016 (at node 9)
Injected packet length average = 1
Accepted packet length average = 1
Total in-flight flits = 4 (0 measured)
latency change    = 0.00388758
throughput change = 0.00699301
Class 0:
Packet latency average = 19.3333
	minimum = 7
	maximum = 37
Network latency average = 19.3333
	minimum = 7
	maximum = 37
Slowest packet = 2141
Flit latency average = 19.3333
	minimum = 7
	maximum = 37
Slowest flit = 2141
Fragmentation average = 0
	minimum = 0
	maximum = 0
Injected packet rate average = 0.011375
	minimum = 0.004 (at node 6)
	maximum = 0.022 (at node 14)
Accepted packet rate average = 0.01125
	minimum = 0.002 (at node 9)
	maximum = 0.02 (at node 5)
Injected flit rate average = 0.011375
	minimum = 0.004 (at node 6)
	maximum = 0.022 (at node 14)
Accepted flit rate average= 0.01125
	minimum = 0.002 (at node 9)
	maximum = 0.02 (at node 5)
Injected packet length average = 1
Accepted packet length average = 1
Total in-flight flits = 5 (0 measured)
latency change    = 0.039185
throughput change = 0.205556
Warmed up ...Time used is 1500 cycles
Class 0:
Packet latency average = 18.3333
	minimum = 7
	maximum = 32
Network latency average = 18.3333
	minimum = 7
	maximum = 32
Slowest packet = 2241
Flit latency average = 18.25
	minimum = 7
	maximum = 32
Slowest flit = 2241
Fragmentation average = 0
	minimum = 0
	maximum = 0
Injected packet rate average = 0.0095
	minimum = 0.004 (at node 8)
	maximum = 0.016 (at node 4)
Accepted packet rate average = 0.01
	minimum = 0.004 (at node 10)
	maximum = 0.016 (at node 15)
Injected flit rate average = 0.0095
	minimum = 0.004 (at node 8)
	maximum = 0.016 (at node 4)
Accepted flit rate average= 0.01
	minimum = 0.004 (at node 10)
	maximum = 0.016 (at node 15)
Injected packet length average = 1
Accepted packet length average = 1
Total in-flight flits = 1 (1 measured)
latency change    = 0.0545455
throughput change = 0.125
Class 0:
Packet latency average = 18.457
	minimum = 7
	maximum = 37
Network latency average = 18.457
	minimum = 7
	maximum = 37
Slowest packet = 2361
Flit latency average = 18.4103
	minimum = 7
	maximum = 37
Slowest flit = 2361
Fragmentation average = 0
	minimum = 0
	maximum = 0
Injected packet rate average = 0.009625
	minimum = 0.005 (at node 3)
	maximum = 0.015 (at node 5)
Accepted packet rate average = 0.00975
	minimum = 0.004 (at node 9)
	maximum = 0.016 (at node 11)
Injected flit rate average = 0.009625
	minimum = 0.005 (at node 3)
	maximum = 0.015 (at node 5)
Accepted flit rate average= 0.00975
	minimum = 0.004 (at node 9)
	maximum = 0.016 (at node 11)
Injected packet length average = 1
Accepted packet length average = 1
Total in-flight flits = 3 (3 measured)
latency change    = 0.00669776
throughput change = 0.025641
Class 0:
Packet latency average = 18.8684
	minimum = 7
	maximum = 37
Network latency average = 18.8684
	minimum = 7
	maximum = 37
Slowest packet = 2361
Flit latency average = 18.8283
	minimum = 7
	maximum = 37
Slowest flit = 2361
Fragmentation average = 0
	minimum = 0
	maximum = 0
Injected packet rate average = 0.00966667
	minimum = 0.006 (at node 3)
	maximum = 0.0126667 (at node 5)
Accepted packet rate average = 0.00970833
	minimum = 0.006 (at node 9)
	maximum = 0.014 (at node 11)
Injected flit rate average = 0.00966667
	minimum = 0.006 (at node 3)
	maximum = 0.0126667 (at node 5)
Accepted flit rate average= 0.00970833
	minimum = 0.006 (at node 9)
	maximum = 0.014 (at node 11)
Injected packet length average = 1
Accepted packet length average = 1
Total in-flight flits = 4 (4 measured)
latency change    = 0.0218072
throughput change = 0.00429185
Class 0:
Packet latency average = 19.0562
	minimum = 7
	maximum = 37
Network latency average = 19.0562
	minimum = 7
	maximum = 37
Slowest packet = 2361
Flit latency average = 19.0246
	minimum = 7
	maximum = 37
Slowest flit = 2361
Fragmentation average = 0
	minimum = 0
	maximum = 0
Injected packet rate average = 0.0101563
	minimum = 0.0065 (at node 3)
	maximum = 0.012 (at node 1)
Accepted packet rate average = 0.0101563
	minimum = 0.0065 (at node 9)
	maximum = 0.016 (at node 11)
Injected flit rate average = 0.0101563
	minimum = 0.0065 (at node 3)
	maximum = 0.012 (at node 1)
Accepted flit rate average= 0.0101563
	minimum = 0.0065 (at node 9)
	maximum = 0.016 (at node 11)
Injected packet length average = 1
Accepted packet length average = 1
Total in-flight flits = 5 (5 measured)
latency change    = 0.00985655
throughput change = 0.0441026
Draining all recorded packets ...
Draining remaining packets ...
Time taken is 3551 cycles
Class 0:
Packet latency average = 21.0476
	minimum = 12
	maximum = 37
Network latency average = 21.0476
	minimum = 12
	maximum = 37
Slowest packet = 2565
Flit latency average = 21.0476
	minimum = 12
	maximum = 37
Slowest flit = 2565
Fragmentation average = 0
	minimum = 0
	maximum = 0
Injected packet rate average = 0.010625
	minimum = 0.004 (at node 4)
	maximum = 0.018 (at node 11)
Accepted packet rate average = 0.0105
	minimum = 0.002 (at node 9)
	maximum = 0.018 (at node 8)
Injected flit rate average = 0.010625
	minimum = 0.004 (at node 4)
	maximum = 0.018 (at node 11)
Accepted flit rate average= 0.0105
	minimum = 0.002 (at node 9)
	maximum = 0.018 (at node 8)
Injected packet length average = 1
Accepted packet length average = 1
Total in-flight flits = 1 (0 measured)
latency change    = 1
throughput change = 1
Class 0:
Packet latency average = 20.5276
	minimum = 7
	maximum = 37
Network latency average = 20.5276
	minimum = 7
	maximum = 37
Slowest packet = 2565
Flit latency average = 20.5276
	minimum = 7
	maximum = 37
Slowest flit = 2565
Fragmentation average = 0
	minimum = 0
	maximum = 0
Injected packet rate average = 0.0104375
	minimum = 0.005 (at node 7)
	maximum = 0.016 (at node 3)
Accepted packet rate average = 0.0101875
	minimum = 0.006 (at node 2)
	maximum = 0.022 (at node 10)
Injected flit rate average = 0.0104375
	minimum = 0.005 (at node 7)
	maximum = 0.016 (at node 3)
Accepted flit rate average= 0.0101875
	minimum = 0.006 (at node 2)
	maximum = 0.022 (at node 10)
Injected packet length average = 1
Accepted packet length average = 1
Total in-flight flits = 4 (0 measured)
latency change    = 0.0253323
throughput change = 0.0306748
Class 0:
Packet latency average = 21.6154
	minimum = 7
	maximum = 37
Network latency average = 21.6154
	minimum = 7
	maximum = 37
Slowest packet = 2725
Flit latency average = 21.6154
	minimum = 7
	maximum = 37
Slowest flit = 2725
Fragmentation average = 0
	minimum = 0
	maximum = 0
Injected packet rate average = 0.0085
	minimum = 0 (at node 7)
	maximum = 0.016 (at node 0)
Accepted packet rate average = 0.008125
	minimum = 0.004 (at node 1)
	maximum = 0.016 (at node 3)
Injected flit rate average = 0.0085
	minimum = 0 (at node 7)
	maximum = 0.016 (at node 0)
Accepted flit rate average= 0.008125
	minimum = 0.004 (at node 1)
	maximum = 0.016 (at node 3)
Injected packet length average = 1
Accepted packet length average = 1
Total in-flight flits = 7 (0 measured)
latency change    = 0.0503242
throughput change = 0.253846
Warmed up ...Time used is 1500 cycles
Class 0:
Packet latency average = 18.6061
	minimum = 7
	maximum = 37
Network latency average = 18.6061
	minimum = 7
	maximum = 37
Slowest packet = 2802
Flit latency average = 18.9315
	minimum = 7
	maximum = 37
Slowest flit = 2802
Fragmentation average = 0
	minimum = 0
	maximum = 0
Injected packet rate average = 0.00875
	minimum = 0.002 (at node 8)
	maximum = 0.018 (at node 6)
Accepted packet rate average = 0.009125
	minimum = 0.004 (at node 10)
	maximum = 0.016 (at node 6)
Injected flit rate average = 0.00875
	minimum = 0.002 (at node 8)
	maximum = 0.018 (at node 6)
Accepted flit rate average= 0.009125
	minimum = 0.004 (at node 10)
	maximum = 0.016 (at node 6)
Injected packet length average = 1
Accepted packet length average = 1
Total in-flight flits = 4 (4 measured)
latency change    = 0.161739
throughput change = 0.109589
Class 0:
Packet latency average = 19.5556
	minimum = 7
	maximum = 37
Network latency average = 19.5556
	minimum = 7
	maximum = 37
Slowest packet = 2802
Flit latency average = 19.6689
	minimum = 7
	maximum = 37
Slowest flit = 2802
Fragmentation average = 0
	minimum = 0
	maximum = 0
Injected packet rate average = 0.00925
	minimum = 0.004 (at node 3)
	maximum = 0.013 (at node 4)
Accepted packet rate average = 0.0094375
	minimum = 0.005 (at node 10)
	maximum = 0.014 (at node 0)
Injected flit rate average = 0.00925
	minimum = 0.004 (at node 3)
	maximum = 0.013 (at node 4)
Accepted flit rate average= 0.0094375
	minimum = 0.005 (at node 10)
	maximum = 0.014 (at node 0)
Injected packet length average = 1
Accepted packet length average = 1
Total in-flight flits = 4 (4 measured)
latency change    = 0.0485537
throughput change = 0.0331126
Class 0:
Packet latency average = 19.5024
	minimum = 7
	maximum = 37
Network latency average = 19.5024
	minimum = 7
	maximum = 37
Slowest packet = 2802
Flit latency average = 19.5826
	minimum = 7
	maximum = 37
Slowest flit = 2802
Fragmentation average = 0
	minimum = 0
	maximum = 0
Injected packet rate average = 0.00891667
	minimum = 0.006 (at node 3)
	maximum = 0.012 (at node 2)
Accepted packet rate average = 0.00908333
	minimum = 0.00466667 (at node 9)
	maximum = 0.012 (at node 2)
Injected flit rate average = 0.00891667
	minimum = 0.006 (at node 3)
	maximum = 0.012 (at node 2)
Accepted flit rate average= 0.00908333
	minimum = 0.00466667 (at node 9)
	maximum = 0.012 (at node 2)
Injected packet length average = 1
Accepted packet length average = 1
Total in-flight flits = 3 (3 measured)
latency change    = 0.00272715
throughput change = 0.0389908
Class 0:
Packet latency average = 19.5652
	minimum = 7
	maximum = 37
Network latency average = 19.5652
	minimum = 7
	maximum = 37
Slowest packet = 2802
Flit latency average = 19.6254
	minimum = 7
	maximum = 37
Slowest flit = 2802
Fragmentation average = 0
	minimum = 0
	maximum = 0
Injected packet rate average = 0.00875
	minimum = 0.006 (at node 3)
	maximum = 0.0115 (at node 2)
Accepted packet rate average = 0.00884375
	minimum = 0.005 (at node 10)
	maximum = 0.0115 (at node 2)
Injected flit rate average = 0.00875
	minimum = 0.006 (at node 3)
	maximum = 0.0115 (at node 2)
Accepted flit rate average= 0.00884375
	minimum = 0.005 (at node 10)
	maximum = 0.0115 (at node 2)
Injected packet length average = 1
Accepted packet length average = 1
Total in-flight flits = 4 (4 measured)
latency change    = 0.00321222
throughput change = 0.0270907
Draining all recorded packets ...
Draining remaining packets ...
Time taken is 3548 cycles
Class 0:
Packet latency average = 21.2375
	minimum = 12
	maximum = 37
Network latency average = 21.2375
	minimum = 12
	maximum = 37
Slowest packet = 3082
Flit latency average = 21.2375
	minimum = 12
	maximum = 37
Slowest flit = 3082
Fragmentation average = 0
	minimum = 0
	maximum = 0
Injected packet rate average = 0.0105
	minimum = 0 (at node 4)
	maximum = 0.024 (at node 12)
Accepted packet rate average = 0.01
	minimum = 0.004 (at node 2)
	maximum = 0.02 (at node 0)
Injected flit rate average = 0.0105
	minimum = 0 (at node 4)
	maximum = 0.024 (at node 12)
Accepted flit rate average= 0.01
	minimum = 0.004 (at node 2)
	maximum = 0.02 (at node 0)
Injected packet length average = 1
Accepted packet length average = 1
Total in-flight flits = 4 (0 measured)
latency change    = 1
throughput change = 1
Class 0:
Packet latency average = 20.2611
	minimum = 7
	maximum = 37
Network latency average = 20.2611
	minimum = 7
	maximum = 37
Slowest packet = 3082
Flit latency average = 20.2611
	minimum = 7
	maximum = 37
Slowest flit = 3082
Fragmentation average = 0
	minimum = 0
	maximum = 0
Injected packet rate average = 0.0100625
	minimum = 0.005 (at node 4)
	maximum = 0.019 (at node 12)
Accepted packet rate average = 0.0098125
	minimum = 0.006 (at node 2)
	maximum = 0.017 (at node 1)
Injected flit rate average = 0.0100625
	minimum = 0.005 (at node 4)
	maximum = 0.019 (at node 12)
Accepted flit rate average= 0.0098125
	minimum = 0.006 (at node 2)
	maximum = 0.017 (at node 1)
Injected packet length average = 1
Accepted packet length average = 1
Total in-flight flits = 4 (0 measured)
latency change    = 0.0481885
throughput change = 0.0191083
Class 0:
Packet latency average = 20.1122
	minimum = 7
	maximum = 37
Network latency average = 20.1122
	minimum = 7
	maximum = 37
Slowest packet = 3275
Flit latency average = 20.1122
	minimum = 7
	maximum = 37
Slowest flit = 3275
Fragmentation average = 0
	minimum = 0
	maximum = 0
Injected packet rate average = 0.012
	minimum = 0.006 (at node 9)
	maximum = 0.024 (at node 15)
Accepted packet rate average = 0.01225
	minimum = 0.008 (at node 1)
	maximum = 0.02 (at node 2)
Injected flit rate average = 0.012
	minimum = 0.006 (at node 9)
	maximum = 0.024 (at node 15)
Accepted flit rate average= 0.01225
	minimum = 0.008 (at node 1)
	maximum = 0.02 (at node 2)
Injected packet length average = 1
Accepted packet length average = 1
Total in-flight flits = 2 (0 measured)
latency change    = 0.00740353
throughput change = 0.19898
Warmed up ...Time used is 1500 cycles
Class 0:
Packet latency average = 19.0854
	minimum = 7
	maximum = 32
Network latency average = 19.0854
	minimum = 7
	maximum = 32
Slowest packet = 3354
Flit latency average = 19.0952
	minimum = 7
	maximum = 32
Slowest flit = 3354
Fragmentation average = 0
	minimum = 0
	maximum = 0
Injected packet rate average = 0.010625
	minimum = 0.004 (at node 2)
	maximum = 0.022 (at node 3)
Accepted packet rate average = 0.0105
	minimum = 0 (at node 12)
	maximum = 0.022 (at node 2)
Injected flit rate average = 0.010625
	minimum = 0.004 (at node 2)
	maximum = 0.022 (at node 3)
Accepted flit rate average= 0.0105
	minimum = 0 (at node 12)
	maximum = 0.022 (at node 2)
Injected packet length average = 1
Accepted packet length average = 1
Total in-flight flits = 3 (3 measured)
latency change    = 0.0538045
throughput change = 0.166667
Class 0:
Packet latency average = 18.9268
	minimum = 7
	maximum = 37
Network latency average = 18.9268
	minimum = 7
	maximum = 37
Slowest packet = 3426
Flit latency average = 18.9337
	minimum = 7
	maximum = 37
Slowest flit = 3426
Fragmentation average = 0
	minimum = 0
	maximum = 0
Injected packet rate average = 0.010375
	minimum = 0.006 (at node 9)
	maximum = 0.017 (at node 11)
Accepted packet rate average = 0.010375
	minimum = 0.005 (at node 12)
	maximum = 0.017 (at node 2)
Injected flit rate average = 0.010375
	minimum = 0.006 (at node 9)
	maximum = 0.017 (at node 11)
Accepted flit rate average= 0.010375
	minimum = 0.005 (at node 12)
	maximum = 0.017 (at node 2)
Injected packet length average = 1
Accepted packet length average = 1
Total in-flight flits = 2 (2 measured)
latency change    = 0.00837629
throughput change = 0.0120482
Class 0:
Packet latency average = 18.7336
	minimum = 7
	maximum = 37
Network latency average = 18.7336
	minimum = 7
	maximum = 37
Slowest packet = 3426
Flit latency average = 18.7398
	minimum = 7
	maximum = 37
Slowest flit = 3426
Fragmentation average = 0
	minimum = 0
	maximum = 0
Injected packet rate average = 0.0102917
	minimum = 0.00666667 (at node 2)
	maximum = 0.014 (at node 11)
Accepted packet rate average = 0.01025
	minimum = 0.00666667 (at node 9)
	maximum = 0.0146667 (at node 5)
Injected flit rate average = 0.0102917
	minimum = 0.00666667 (at node 2)
	maximum = 0.014 (at node 11)
Accepted flit rate average= 0.01025
	minimum = 0.00666667 (at node 9)
	maximum = 0.0146667 (at node 5)
Injected packet length average = 1
Accepted packet length average = 1
Total in-flight flits = 3 (3 measured)
latency change    = 0.0103142
throughput change = 0.0121951
Class 0:
Packet latency average = 18.7121
	minimum = 7
	maximum = 37
Network latency average = 18.7121
	minimum = 7
	maximum = 37
Slowest packet = 3426
Flit latency average = 18.7169
	minimum = 7
	maximum = 37
Slowest flit = 3426
Fragmentation average = 0
	minimum = 0
	maximum = 0
Injected packet rate average = 0.01025
	minimum = 0.0055 (at node 10)
	maximum = 0.0145 (at node 11)
Accepted packet rate average = 0.0101563
	minimum = 0.006 (at node 12)
	maximum = 0.0145 (at node 2)
Injected flit rate average = 0.01025
	minimum = 0.0055 (at node 10)
	maximum = 0.0145 (at node 11)
Accepted flit rate average= 0.0101563
	minimum = 0.006 (at node 12)
	maximum = 0.0145 (at node 2)
Injected packet length average = 1
Accepted packet length average = 1
Total in-flight flits = 5 (5 measured)
latency change    = 0.00115071
throughput change = 0.00923077
Draining all recorded packets ...
Draining remaining packets ...
Time taken is 3533 cycles
Class 0:
Packet latency average = 19.5
	minimum = 7
	maximum = 37
Network latency average = 19.5
	minimum = 7
	maximum = 37
Slowest packet = 3675
Flit latency average = 19.5
	minimum = 7
	maximum = 37
Slowest flit = 3675
Fragmentation average = 0
	minimum = 0
	maximum = 0
Injected packet rate average = 0.01025
	minimum = 0.004 (at node 1)
	maximum = 0.016 (at node 12)
Accepted packet rate average = 0.01025
	minimum = 0.006 (at node 10)
	maximum = 0.018 (at node 0)
Injected flit rate average = 0.01025
	minimum = 0.004 (at node 1)
	maximum = 0.016 (at node 12)
Accepted flit rate average= 0.01025
	minimum = 0.006 (at node 10)
	maximum = 0.018 (at node 0)
Injected packet length average = 1
Accepted packet length average = 1
Total in-flight flits = 0 (0 measured)
latency change    = 1
throughput change = 1
Class 0:
Packet latency average = 19.5062
	minimum = 7
	maximum = 38
Network latency average = 19.5062
	minimum = 7
	maximum = 38
Slowest packet = 3756
Flit latency average = 19.5062
	minimum = 7
	maximum = 38
Slowest flit = 3756
Fragmentation average = 0
	minimum = 0
	maximum = 0
Injected packet rate average = 0.0103125
	minimum = 0.003 (at node 1)
	maximum = 0.015 (at node 12)
Accepted packet rate average = 0.010125
	minimum = 0.006 (at node 10)
	maximum = 0.015 (at node 6)
Injected flit rate average = 0.0103125
	minimum = 0.003 (at node 1)
	maximum = 0.015 (at node 12)
Accepted flit rate average= 0.010125
	minimum = 0.006 (at node 10)
	maximum = 0.015 (at node 6)
Injected packet length average = 1
Accepted packet length average = 1
Total in-flight flits = 3 (0 measured)
latency change    = 0.000316456
throughput change = 0.0123457
Class 0:
Packet latency average = 21.2414
	minimum = 7
	maximum = 33
Network latency average = 21.2414
	minimum = 7
	maximum = 33
Slowest packet = 3864
Flit latency average = 21.2414
	minimum = 7
	maximum = 33
Slowest flit = 3864
Fragmentation average = 0
	minimum = 0
	maximum = 0
Injected packet rate average = 0.007375
	minimum = 0 (at node 0)
	maximum = 0.016 (at node 4)
Accepted packet rate average = 0.00725
	minimum = 0 (at node 8)
	maximum = 0.018 (at node 7)
Injected flit rate average = 0.007375
	minimum = 0 (at node 0)
	maximum = 0.016 (at node 4)
Accepted flit rate average= 0.00725
	minimum = 0 (at node 8)
	maximum = 0.018 (at node 7)
Injected packet length average = 1
Accepted packet length average = 1
Total in-flight flits = 4 (0 measured)
latency change    = 0.0816899
throughput change = 0.396552
Warmed up ...Time used is 1500 cycles
Class 0:
Packet latency average = 18.5672
	minimum = 7
	maximum = 32
Network latency average = 18.5672
	minimum = 7
	maximum = 32
Slowest packet = 3887
Flit latency average = 18.9014
	minimum = 7
	maximum = 32
Slowest flit = 3887
Fragmentation average = 0
	minimum = 0
	maximum = 0
Injected packet rate average = 0.0085
	minimum = 0.002 (at node 14)
	maximum = 0.016 (at node 11)
Accepted packet rate average = 0.008875
	minimum = 0.004 (at node 2)
	maximum = 0.018 (at node 1)
Injected flit rate average = 0.0085
	minimum = 0.002 (at node 14)
	maximum = 0.016 (at node 11)
Accepted flit rate average= 0.008875
	minimum = 0.004 (at node 2)
	maximum = 0.018 (at node 1)
Injected packet length average = 1
Accepted packet length average = 1
Total in-flight flits = 1 (1 measured)
latency change    = 0.144029
throughput change = 0.183099
Class 0:
Packet latency average = 18.7014
	minimum = 7
	maximum = 37
Network latency average = 18.7014
	minimum = 7
	maximum = 37
Slowest packet = 3992
Flit latency average = 18.8581
	minimum = 7
	maximum = 37
Slowest flit = 3992
Fragmentation average = 0
	minimum = 0
	maximum = 0
Injected packet rate average = 0.0093125
	minimum = 0.005 (at node 5)
	maximum = 0.014 (at node 15)
Accepted packet rate average = 0.00925
	minimum = 0.005 (at node 8)
	maximum = 0.014 (at node 4)
Injected flit rate average = 0.0093125
	minimum = 0.005 (at node 5)
	maximum = 0.014 (at node 15)
Accepted flit rate average= 0.00925
	minimum = 0.005 (at node 8)
	maximum = 0.014 (at node 4)
Injected packet length average = 1
Accepted packet length average = 1
Total in-flight flits = 5 (5 measured)
latency change    = 0.00717726
throughput change = 0.0405405
Class 0:
Packet latency average = 19.0633
	minimum = 7
	maximum = 37
Network latency average = 19.0633
	minimum = 7
	maximum = 37
Slowest packet = 3992
Flit latency average = 19.16
	minimum = 7
	maximum = 37
Slowest flit = 3992
Fragmentation average = 0
	minimum = 0
	maximum = 0
Injected packet rate average = 0.00941667
	minimum = 0.00333333 (at node 5)
	maximum = 0.0133333 (at node 12)
Accepted packet rate average = 0.009375
	minimum = 0.00466667 (at node 8)
	maximum = 0.0133333 (at node 4)
Injected flit rate average = 0.00941667
	minimum = 0.00333333 (at node 5)
	maximum = 0.0133333 (at node 12)
Accepted flit rate average= 0.009375
	minimum = 0.00466667 (at node 8)
	maximum = 0.0133333 (at node 4)
Injected packet length average = 1
Accepted packet length average = 1
Total in-flight flits = 5 (5 measured)
latency change    = 0.0189872
throughput change = 0.0133333
Class 0:
Packet latency average = 19.4566
	minimum = 7
	maximum = 38
Network latency average = 19.4566
	minimum = 7
	maximum = 38
Slowest packet = 4117
Flit latency average = 19.5206
	minimum = 7
	maximum = 38
Slowest flit = 4117
Fragmentation average = 0
	minimum = 0
	maximum = 0
Injected packet rate average = 0.00984375
	minimum = 0.004 (at node 5)
	maximum = 0.013 (at node 15)
Accepted packet rate average = 0.00984375
	minimum = 0.0055 (at node 14)
	maximum = 0.013 (at node 13)
Injected flit rate average = 0.00984375
	minimum = 0.004 (at node 5)
	maximum = 0.013 (at node 15)
Accepted flit rate average= 0.00984375
	minimum = 0.0055 (at node 14)
	maximum = 0.013 (at node 13)
Injected packet length average = 1
Accepted packet length average = 1
Total in-flight flits = 4 (4 measured)
latency change    = 0.0202113
throughput change = 0.047619
Draining all recorded packets ...
Draining remaining packets ...
Time taken is 3528 cycles
Class 0:
Packet latency average = 20.8125
	minimum = 7
	maximum = 37
Network latency average = 20.8125
	minimum = 7
	maximum = 37
Slowest packet = 4237
Flit latency average = 20.8125
	minimum = 7
	maximum = 37
Slowest flit = 4237
Fragmentation average = 0
	minimum = 0
	maximum = 0
Injected packet rate average = 0.01025
	minimum = 0.002 (at node 12)
	maximum = 0.026 (at node 4)
Accepted packet rate average = 0.01
	minimum = 0.006 (at node 1)
	maximum = 0.018 (at node 9)
Injected flit rate average = 0.01025
	minimum = 0.002 (at node 12)
	maximum = 0.026 (at node 4)
Accepted flit rate average= 0.01
	minimum = 0.006 (at node 1)
	maximum = 0.018 (at node 9)
Injected packet length average = 1
Accepted packet length average = 1
Total in-flight flits = 2 (0 measured)
latency change    = 1
throughput change = 1
Class 0:
Packet latency average = 20.3291
	minimum = 7
	maximum = 37
Network latency average = 20.3291
	minimum = 7
	maximum = 37
Slowest packet = 4237
Flit latency average = 20.3291
	minimum = 7
	maximum = 37
Slowest flit = 4237
Fragmentation average = 0
	minimum = 0
	maximum = 0
Injected packet rate average = 0.010125
	minimum = 0.005 (at node 12)
	maximum = 0.019 (at node 4)
Accepted packet rate average = 0.009875
	minimum = 0.005 (at node 1)
	maximum = 0.018 (at node 0)
Injected flit rate average = 0.010125
	minimum = 0.005 (at node 12)
	maximum = 0.019 (at node 4)
Accepted flit rate average= 0.009875
	minimum = 0.005 (at node 1)
	maximum = 0.018 (at node 0)
Injected packet length average = 1
Accepted packet length average = 1
Total in-flight flits = 4 (0 measured)
latency change    = 0.023778
throughput change = 0.0126582
Class 0:
Packet latency average = 21.2766
	minimum = 7
	maximum = 37
Network latency average = 21.2766
	minimum = 7
	maximum = 37
Slowest packet = 4381
Flit latency average = 21.2766
	minimum = 7
	maximum = 37
Slowest flit = 4381
Fragmentation average = 0
	minimum = 0
	maximum = 0
Injected packet rate average = 0.011625
	minimum = 0.006 (at node 4)
	maximum = 0.02 (at node 9)
Accepted packet rate average = 0.01175
	minimum = 0.002 (at node 7)
	maximum = 0.02 (at node 15)
Injected flit rate average = 0.011625
	minimum = 0.006 (at node 4)
	maximum = 0.02 (at node 9)
Accepted flit rate average= 0.01175
	minimum = 0.002 (at node 7)
	maximum = 0.02 (at node 15)
Injected packet length average = 1
Accepted packet length average = 1
Total in-flight flits = 3 (0 measured)
latency change    = 0.0445316
throughput change = 0.159574
Warmed up ...Time used is 1500 cycles
Class 0:
Packet latency average = 19.4359
	minimum = 7
	maximum = 37
Network latency average = 19.4359
	minimum = 7
	maximum = 37
Slowest packet = 4510
Flit latency average = 19.716
	minimum = 7
	maximum = 37
Slowest flit = 4510
Fragmentation average = 0
	minimum = 0
	maximum = 0
Injected packet rate average = 0.01
	minimum = 0.002 (at node 7)
	maximum = 0.018 (at node 11)
Accepted packet rate average = 0.010125
	minimum = 0 (at node 14)
	maximum = 0.018 (at node 13)
Injected flit rate average = 0.01
	minimum = 0.002 (at node 7)
	maximum = 0.018 (at node 11)
Accepted flit rate average= 0.010125
	minimum = 0 (at node 14)
	maximum = 0.018 (at node 13)
Injected packet length average = 1
Accepted packet length average = 1
Total in-flight flits = 2 (2 measured)
latency change    = 0.0947061
throughput change = 0.160494
Class 0:
Packet latency average = 19.5
	minimum = 7
	maximum = 37
Network latency average = 19.5
	minimum = 7
	maximum = 37
Slowest packet = 4510
Flit latency average = 19.6243
	minimum = 7
	maximum = 37
Slowest flit = 4510
Fragmentation average = 0
	minimum = 0
	maximum = 0
Injected packet rate average = 0.0111875
	minimum = 0.004 (at node 7)
	maximum = 0.018 (at node 10)
Accepted packet rate average = 0.0113125
	minimum = 0.005 (at node 11)
	maximum = 0.017 (at node 5)
Injected flit rate average = 0.0111875
	minimum = 0.004 (at node 7)
	maximum = 0.018 (at node 10)
Accepted flit rate average= 0.0113125
	minimum = 0.005 (at node 11)
	maximum = 0.017 (at node 5)
Injected packet length average = 1
Accepted packet length average = 1
Total in-flight flits = 1 (1 measured)
latency change    = 0.00328731
throughput change = 0.104972
Class 0:
Packet latency average = 19.4137
	minimum = 7
	maximum = 37
Network latency average = 19.4137
	minimum = 7
	maximum = 37
Slowest packet = 4510
Flit latency average = 19.504
	minimum = 7
	maximum = 37
Slowest flit = 4510
Fragmentation average = 0
	minimum = 0
	maximum = 0
Injected packet rate average = 0.0105
	minimum = 0.00466667 (at node 7)
	maximum = 0.0153333 (at node 10)
Accepted packet rate average = 0.0105
	minimum = 0.00533333 (at node 11)
	maximum = 0.016 (at node 0)
Injected flit rate average = 0.0105
	minimum = 0.00466667 (at node 7)
	maximum = 0.0153333 (at node 10)
Accepted flit rate average= 0.0105
	minimum = 0.00533333 (at node 11)
	maximum = 0.016 (at node 0)
Injected packet length average = 1
Accepted packet length average = 1
Total in-flight flits = 3 (3 measured)
latency change    = 0.00444766
throughput change = 0.077381
Class 0:
Packet latency average = 19.5061
	minimum = 7
	maximum = 37
Network latency average = 19.5061
	minimum = 7
	maximum = 37
Slowest packet = 4510
Flit latency average = 19.5736
	minimum = 7
	maximum = 37
Slowest flit = 4510
Fragmentation average = 0
	minimum = 0
	maximum = 0
Injected packet rate average = 0.010375
	minimum = 0.0055 (at node 5)
	maximum = 0.014 (at node 2)
Accepted packet rate average = 0.0104063
	minimum = 0.007 (at node 14)
	maximum = 0.0155 (at node 0)
Injected flit rate average = 0.010375
	minimum = 0.0055 (at node 5)
	maximum = 0.014 (at node 2)
Accepted flit rate average= 0.0104063
	minimum = 0.007 (at node 14)
	maximum = 0.0155 (at node 0)
Injected packet length average = 1
Accepted packet length average = 1
Total in-flight flits = 2 (2 measured)
latency change    = 0.0047373
throughput change = 0.00900901
Class 0:
Packet latency average = 19.3158
	minimum = 7
	maximum = 37
Network latency average = 19.3158
	minimum = 7
	maximum = 37
Slowest packet = 4510
Flit latency average = 19.3705
	minimum = 7
	maximum = 37
Slowest flit = 4510
Fragmentation average = 0
	minimum = 0
	maximum = 0
Injected packet rate average = 0.0105
	minimum = 0.006 (at node 7)
	maximum = 0.0144 (at node 4)
Accepted packet rate average = 0.010525
	minimum = 0.0068 (at node 14)
	maximum = 0.0156 (at node 0)
Injected flit rate average = 0.0105
	minimum = 0.006 (at node 7)
	maximum = 0.0144 (at node 4)
Accepted flit rate average= 0.010525
	minimum = 0.0068 (at node 14)
	maximum = 0.0156 (at node 0)
Injected packet length average = 1
Accepted packet length average = 1
Total in-flight flits = 2 (2 measured)
latency change    = 0.00985055
throughput change = 0.0112827
Class 0:
Packet latency average = 18.9511
	minimum = 7
	maximum = 37
Network latency average = 18.9511
	minimum = 7
	maximum = 37
Slowest packet = 4510
Flit latency average = 19
	minimum = 7
	maximum = 37
Slowest flit = 4510
Fragmentation average = 0
	minimum = 0
	maximum = 0
Injected packet rate average = 0.0102917
	minimum = 0.00666667 (at node 7)
	maximum = 0.0136667 (at node 8)
Accepted packet rate average = 0.0102917
	minimum = 0.00666667 (at node 14)
	maximum = 0.014 (at node 0)
Injected flit rate average = 0.0102917
	minimum = 0.00666667 (at node 7)
	maximum = 0.0136667 (at node 8)
Accepted flit rate average= 0.0102917
	minimum = 0.00666667 (at node 14)
	maximum = 0.014 (at node 0)
Injected packet length average = 1
Accepted packet length average = 1
Total in-flight flits = 3 (3 measured)
latency change    = 0.0192426
throughput change = 0.0226721
Draining all recorded packets ...
Draining remaining packets ...
Time taken is 4556 cycles
Class 0:
Packet latency average = 20.5542
	minimum = 7
	maximum = 37
Network latency average = 20.5542
	minimum = 7
	maximum = 37
Slowest packet = 5032
Flit latency average = 20.5542
	minimum = 7
	maximum = 37
Slowest flit = 5032
Fragmentation average = 0
	minimum = 0
	maximum = 0
Injected packet rate average = 0.01075
	minimum = 0.004 (at node 9)
	maximum = 0.02 (at node 12)
Accepted packet rate average = 0.010375
	minimum = 0.004 (at node 3)
	maximum = 0.026 (at node 11)
Injected flit rate average = 0.01075
	minimum = 0.004 (at node 9)
	maximum = 0.02 (at node 12)
Accepted flit rate average= 0.010375
	minimum = 0.004 (at node 3)
	maximum = 0.026 (at node 11)
Injected packet length average = 1
Accepted packet length average = 1
Total in-flight flits = 3 (0 measured)
latency change    = 1
throughput change = 1
Class 0:
Packet latency average = 19.7397
	minimum = 7
	maximum = 37
Network latency average = 19.7397
	minimum = 7
	maximum = 37
Slowest packet = 5032
Flit latency average = 19.7397
	minimum = 7
	maximum = 37
Slowest flit = 5032
Fragmentation average = 0
	minimum = 0
	maximum = 0
Injected packet rate average = 0.009375
	minimum = 0.005 (at node 7)
	maximum = 0.013 (at node 4)
Accepted packet rate average = 0.009125
	minimum = 0.004 (at node 3)
	maximum = 0.016 (at node 11)
Injected flit rate average = 0.009375
	minimum = 0.005 (at node 7)
	maximum = 0.013 (at node 4)
Accepted flit rate average= 0.009125
	minimum = 0.004 (at node 3)
	maximum = 0.016 (at node 11)
Injected packet length average = 1
Accepted packet length average = 1
Total in-flight flits = 4 (0 measured)
latency change    = 0.0412615
throughput change = 0.136986
Class 0:
Packet latency average = 18.0795
	minimum = 7
	maximum = 32
Network latency average = 18.0795
	minimum = 7
	maximum = 32
Slowest packet = 5121
Flit latency average = 18.0795
	minimum = 7
	maximum = 32
Slowest flit = 5121
Fragmentation average = 0
	minimum = 0
	maximum = 0
Injected packet rate average = 0.011125
	minimum = 0.002 (at node 0)
	maximum = 0.018 (at node 3)
Accepted packet rate average = 0.011
	minimum = 0.004 (at node 1)
	maximum = 0.022 (at node 11)
Injected flit rate average = 0.011125
	minimum = 0.002 (at node 0)
	maximum = 0.018 (at node 3)
Accepted flit rate average= 0.011
	minimum = 0.004 (at node 1)
	maximum = 0.022 (at node 11)
Injected packet length average = 1
Accepted packet length average = 1
Total in-flight flits = 5 (0 measured)
latency change    = 0.0918265
throughput change = 0.170455
Warmed up ...Time used is 1500 cycles
Class 0:
Packet latency average = 19.9529
	minimum = 7
	maximum = 37
Network latency average = 19.9529
	minimum = 7
	maximum = 37
Slowest packet = 5201
Flit latency average = 20.2889
	minimum = 7
	maximum = 37
Slowest flit = 5201
Fragmentation average = 0
	minimum = 0
	maximum = 0
Injected packet rate average = 0.011125
	minimum = 0.004 (at node 0)
	maximum = 0.02 (at node 15)
Accepted packet rate average = 0.01125
	minimum = 0.004 (at node 5)
	maximum = 0.024 (at node 10)
Injected flit rate average = 0.011125
	minimum = 0.004 (at node 0)
	maximum = 0.02 (at node 15)
Accepted flit rate average= 0.01125
	minimum = 0.004 (at node 5)
	maximum = 0.024 (at node 10)
Injected packet length average = 1
Accepted packet length average = 1
Total in-flight flits = 4 (4 measured)
latency change    = 0.0938907
throughput change = 0.0222222
Class 0:
Packet latency average = 19.9758
	minimum = 7
	maximum = 37
Network latency average = 19.9758
	minimum = 7
	maximum = 37
Slowest packet = 5201
Flit latency average = 20.1529
	minimum = 7
	maximum = 37
Slowest flit = 5201
Fragmentation average = 0
	minimum = 0
	maximum = 0
Injected packet rate average = 0.0105625
	minimum = 0.003 (at node 0)
	maximum = 0.016 (at node 6)
Accepted packet rate average = 0.010625
	minimum = 0.007 (at node 5)
	maximum = 0.018 (at node 10)
Injected flit rate average = 0.0105625
	minimum = 0.003 (at node 0)
	maximum = 0.016 (at node 6)
Accepted flit rate average= 0.010625
	minimum = 0.007 (at node 5)
	maximum = 0.018 (at node 10)
Injected packet length average = 1
Accepted packet length average = 1
Total in-flight flits = 4 (4 measured)
latency change    = 0.0011422
throughput change = 0.0588235
Class 0:
Packet latency average = 19.7532
	minimum = 7
	maximum = 37
Network latency average = 19.7532
	minimum = 7
	maximum = 37
Slowest packet = 5201
Flit latency average = 19.8833
	minimum = 7
	maximum = 37
Slowest flit = 5201
Fragmentation average = 0
	minimum = 0
	maximum = 0
Injected packet rate average = 0.00991667
	minimum = 0.006 (at node 9)
	maximum = 0.0146667 (at node 6)
Accepted packet rate average = 0.01
	minimum = 0.006 (at node 5)
	maximum = 0.0146667 (at node 2)
Injected flit rate average = 0.00991667
	minimum = 0.006 (at node 9)
	maximum = 0.0146667 (at node 6)
Accepted flit rate average= 0.01
	minimum = 0.006 (at node 5)
	maximum = 0.0146667 (at node 2)
Injected packet length average = 1
Accepted packet length average = 1
Total in-flight flits = 3 (3 measured)
latency change    = 0.0112673
throughput change = 0.0625
Class 0:
Packet latency average = 19.8454
	minimum = 7
	maximum = 37
Network latency average = 19.8454
	minimum = 7
	maximum = 37
Slowest packet = 5201
Flit latency average = 19.941
	minimum = 7
	maximum = 37
Slowest flit = 5201
Fragmentation average = 0
	minimum = 0
	maximum = 0
Injected packet rate average = 0.00996875
	minimum = 0.0065 (at node 14)
	maximum = 0.0155 (at node 11)
Accepted packet rate average = 0.0100625
	minimum = 0.0065 (at node 5)
	maximum = 0.013 (at node 2)
Injected flit rate average = 0.00996875
	minimum = 0.0065 (at node 14)
	maximum = 0.0155 (at node 11)
Accepted flit rate average= 0.0100625
	minimum = 0.0065 (at node 5)
	maximum = 0.013 (at node 2)
Injected packet length average = 1
Accepted packet length average = 1
Total in-flight flits = 2 (2 measured)
latency change    = 0.00464764
throughput change = 0.00621118
Class 0:
Packet latency average = 19.8586
	minimum = 7
	maximum = 37
Network latency average = 19.8586
	minimum = 7
	maximum = 37
Slowest packet = 5201
Flit latency average = 19.9365
	minimum = 7
	maximum = 37
Slowest flit = 5201
Fragmentation average = 0
	minimum = 0
	maximum = 0
Injected packet rate average = 0.0098
	minimum = 0.0072 (at node 0)
	maximum = 0.0148 (at node 11)
Accepted packet rate average = 0.00985
	minimum = 0.0076 (at node 5)
	maximum = 0.012 (at node 10)
Injected flit rate average = 0.0098
	minimum = 0.0072 (at node 0)
	maximum = 0.0148 (at node 11)
Accepted flit rate average= 0.00985
	minimum = 0.0076 (at node 5)
	maximum = 0.012 (at node 10)
Injected packet length average = 1
Accepted packet length average = 1
Total in-flight flits = 3 (3 measured)
latency change    = 0.000663992
throughput change = 0.0215736
Class 0:
Packet latency average = 19.9682
	minimum = 7
	maximum = 37
Network latency average = 19.9682
	minimum = 7
	maximum = 37
Slowest packet = 5201
Flit latency average = 20.0315
	minimum = 7
	maximum = 37
Slowest flit = 5201
Fragmentation average = 0
	minimum = 0
	maximum = 0
Injected packet rate average = 0.009875
	minimum = 0.00733333 (at node 12)
	maximum = 0.015 (at node 7)
Accepted packet rate average = 0.00991667
	minimum = 0.007 (at node 14)
	maximum = 0.0123333 (at node 9)
Injected flit rate average = 0.009875
	minimum = 0.00733333 (at node 12)
	maximum = 0.015 (at node 7)
Accepted flit rate average= 0.00991667
	minimum = 0.007 (at node 14)
	maximum = 0.0123333 (at node 9)
Injected packet length average = 1
Accepted packet length average = 1
Total in-flight flits = 3 (3 measured)
latency change    = 0.00548579
throughput change = 0.00672269
Draining all recorded packets ...
Draining remaining packets ...
Time taken is 4522 cycles
Class 0:
Packet latency average = 19.9189
	minimum = 7
	maximum = 37
Network latency average = 19.9189
	minimum = 7
	maximum = 37
Slowest packet = 5685
Flit latency average = 19.9189
	minimum = 7
	maximum = 37
Slowest flit = 5685
Fragmentation average = 0
	minimum = 0
	maximum = 0
Injected packet rate average = 0.009875
	minimum = 0.002 (at node 0)
	maximum = 0.016 (at node 1)
Accepted packet rate average = 0.00925
	minimum = 0.002 (at node 10)
	maximum = 0.014 (at node 4)
Injected flit rate average = 0.009875
	minimum = 0.002 (at node 0)
	maximum = 0.016 (at node 1)
Accepted flit rate average= 0.00925
	minimum = 0.002 (at node 10)
	maximum = 0.014 (at node 4)
Injected packet length average = 1
Accepted packet length average = 1
Total in-flight flits = 5 (0 measured)
latency change    = 1
throughput change = 1
Class 0:
Packet latency average = 19.6291
	minimum = 7
	maximum = 37
Network latency average = 19.6291
	minimum = 7
	maximum = 37
Slowest packet = 5685
Flit latency average = 19.6291
	minimum = 7
	maximum = 37
Slowest flit = 5685
Fragmentation average = 0
	minimum = 0
	maximum = 0
Injected packet rate average = 0.0095625
	minimum = 0.006 (at node 0)
	maximum = 0.014 (at node 3)
Accepted packet rate average = 0.0094375
	minimum = 0.007 (at node 10)
	maximum = 0.016 (at node 15)
Injected flit rate average = 0.0095625
	minimum = 0.006 (at node 0)
	maximum = 0.014 (at node 3)
Accepted flit rate average= 0.0094375
	minimum = 0.007 (at node 10)
	maximum = 0.016 (at node 15)
Injected packet length average = 1
Accepted packet length average = 1
Total in-flight flits = 2 (0 measured)
latency change    = 0.0147627
throughput change = 0.0198675
Class 0:
Packet latency average = 19.5714
	minimum = 7
	maximum = 32
Network latency average = 19.5714
	minimum = 7
	maximum = 32
Slowest packet = 5848
Flit latency average = 19.5714
	minimum = 7
	maximum = 32
Slowest flit = 5848
Fragmentation average = 0
	minimum = 0
	maximum = 0
Injected packet rate average = 0.00875
	minimum = 0 (at node 6)
	maximum = 0.016 (at node 15)
Accepted packet rate average = 0.00875
	minimum = 0.004 (at node 13)
	maximum = 0.012 (at node 4)
Injected flit rate average = 0.00875
	minimum = 0 (at node 6)
	maximum = 0.016 (at node 15)
Accepted flit rate average= 0.00875
	minimum = 0.004 (at node 13)
	maximum = 0.012 (at node 4)
Injected packet length average = 1
Accepted packet length average = 1
Total in-flight flits = 2 (0 measured)
latency change    = 0.00294871
throughput change = 0.0785714
Warmed up ...Time used is 1500 cycles
Class 0:
Packet latency average = 18.7284
	minimum = 7
	maximum = 32
Network latency average = 18.7284
	minimum = 7
	maximum = 32
Slowest packet = 5895
Flit latency average = 18.988
	minimum = 7
	maximum = 32
Slowest flit = 5892
Fragmentation average = 0
	minimum = 0
	maximum = 0
Injected packet rate average = 0.0105
	minimum = 0.002 (at node 15)
	maximum = 0.02 (at node 7)
Accepted packet rate average = 0.010375
	minimum = 0.002 (at node 13)
	maximum = 0.016 (at node 2)
Injected flit rate average = 0.0105
	minimum = 0.002 (at node 15)
	maximum = 0.02 (at node 7)
Accepted flit rate average= 0.010375
	minimum = 0.002 (at node 13)
	maximum = 0.016 (at node 2)
Injected packet length average = 1
Accepted packet length average = 1
Total in-flight flits = 3 (3 measured)
latency change    = 0.0450137
throughput change = 0.156627
Class 0:
Packet latency average = 19.1266
	minimum = 7
	maximum = 37
Network latency average = 19.1266
	minimum = 7
	maximum = 37
Slowest packet = 6021
Flit latency average = 19.2563
	minimum = 7
	maximum = 37
Slowest flit = 6021
Fragmentation average = 0
	minimum = 0
	maximum = 0
Injected packet rate average = 0.010125
	minimum = 0.005 (at node 11)
	maximum = 0.017 (at node 7)
Accepted packet rate average = 0.01
	minimum = 0.006 (at node 7)
	maximum = 0.014 (at node 4)
Injected flit rate average = 0.010125
	minimum = 0.005 (at node 11)
	maximum = 0.017 (at node 7)
Accepted flit rate average= 0.01
	minimum = 0.006 (at node 7)
	maximum = 0.014 (at node 4)
Injected packet length average = 1
Accepted packet length average = 1
Total in-flight flits = 4 (4 measured)
latency change    = 0.0208185
throughput change = 0.0375
Class 0:
Packet latency average = 19.4615
	minimum = 7
	maximum = 37
Network latency average = 19.4615
	minimum = 7
	maximum = 37
Slowest packet = 6021
Flit latency average = 19.5466
	minimum = 7
	maximum = 37
Slowest flit = 6021
Fragmentation average = 0
	minimum = 0
	maximum = 0
Injected packet rate average = 0.00979167
	minimum = 0.00666667 (at node 11)
	maximum = 0.0153333 (at node 7)
Accepted packet rate average = 0.00983333
	minimum = 0.006 (at node 9)
	maximum = 0.0133333 (at node 3)
Injected flit rate average = 0.00979167
	minimum = 0.00666667 (at node 11)
	maximum = 0.0153333 (at node 7)
Accepted flit rate average= 0.00983333
	minimum = 0.006 (at node 9)
	maximum = 0.0133333 (at node 3)
Injected packet length average = 1
Accepted packet length average = 1
Total in-flight flits = 1 (1 measured)
latency change    = 0.0172112
throughput change = 0.0169492
Class 0:
Packet latency average = 19.33
	minimum = 7
	maximum = 37
Network latency average = 19.33
	minimum = 7
	maximum = 37
Slowest packet = 6021
Flit latency average = 19.3967
	minimum = 7
	maximum = 37
Slowest flit = 6021
Fragmentation average = 0
	minimum = 0
	maximum = 0
Injected packet rate average = 0.0095
	minimum = 0.006 (at node 12)
	maximum = 0.013 (at node 0)
Accepted packet rate average = 0.00953125
	minimum = 0.0055 (at node 15)
	maximum = 0.012 (at node 8)
Injected flit rate average = 0.0095
	minimum = 0.006 (at node 12)
	maximum = 0.013 (at node 0)
Accepted flit rate average= 0.00953125
	minimum = 0.0055 (at node 15)
	maximum = 0.012 (at node 8)
Injected packet length average = 1
Accepted packet length average = 1
Total in-flight flits = 1 (1 measured)
latency change    = 0.00680317
throughput change = 0.031694
Draining all recorded packets ...
Draining remaining packets ...
Time taken is 3539 cycles
Class 0:
Packet latency average = 19.0154
	minimum = 7
	maximum = 38
Network latency average = 19.0154
	minimum = 7
	maximum = 38
Slowest packet = 6220
Flit latency average = 19.0154
	minimum = 7
	maximum = 38
Slowest flit = 6220
Fragmentation average = 0
	minimum = 0
	maximum = 0
Injected packet rate average = 0.0085
	minimum = 0 (at node 15)
	maximum = 0.014 (at node 0)
Accepted packet rate average = 0.008125
	minimum = 0 (at node 3)
	maximum = 0.02 (at node 11)
Injected flit rate average = 0.0085
	minimum = 0 (at node 15)
	maximum = 0.014 (at node 0)
Accepted flit rate average= 0.008125
	minimum = 0 (at node 3)
	maximum = 0.02 (at node 11)
Injected packet length average = 1
Accepted packet length average = 1
Total in-flight flits = 3 (0 measured)
latency change    = 1
throughput change = 1
Class 0:
Packet latency average = 18.949
	minimum = 7
	maximum = 38
Network latency average = 18.949
	minimum = 7
	maximum = 38
Slowest packet = 6220
Flit latency average = 18.949
	minimum = 7
	maximum = 38
Slowest flit = 6220
Fragmentation average = 0
	minimum = 0
	maximum = 0
Injected packet rate average = 0.0101875
	minimum = 0.004 (at node 15)
	maximum = 0.017 (at node 0)
Accepted packet rate average = 0.0098125
	minimum = 0.006 (at node 3)
	maximum = 0.016 (at node 11)
Injected flit rate average = 0.0101875
	minimum = 0.004 (at node 15)
	maximum = 0.017 (at node 0)
Accepted flit rate average= 0.0098125
	minimum = 0.006 (at node 3)
	maximum = 0.016 (at node 11)
Injected packet length average = 1
Accepted packet length average = 1
Total in-flight flits = 6 (0 measured)
latency change    = 0.00350097
throughput change = 0.171975
Class 0:
Packet latency average = 18.3333
	minimum = 7
	maximum = 37
Network latency average = 18.3333
	minimum = 7
	maximum = 37
Slowest packet = 6421
Flit latency average = 18.3333
	minimum = 7
	maximum = 37
Slowest flit = 6421
Fragmentation average = 0
	minimum = 0
	maximum = 0
Injected packet rate average = 0.008875
	minimum = 0 (at node 13)
	maximum = 0.018 (at node 12)
Accepted packet rate average = 0.009375
	minimum = 0.002 (at node 0)
	maximum = 0.02 (at node 15)
Injected flit rate average = 0.008875
	minimum = 0 (at node 13)
	maximum = 0.018 (at node 12)
Accepted flit rate average= 0.009375
	minimum = 0.002 (at node 0)
	maximum = 0.02 (at node 15)
Injected packet length average = 1
Accepted packet length average = 1
Total in-flight flits = 2 (0 measured)
latency change    = 0.0335843
throughput change = 0.0466667
Warmed up ...Time used is 1500 cycles
Class 0:
Packet latency average = 19.5735
	minimum = 7
	maximum = 37
Network latency average = 19.5735
	minimum = 7
	maximum = 37
Slowest packet = 6492
Flit latency average = 19.5
	minimum = 7
	maximum = 37
Slowest flit = 6492
Fragmentation average = 0
	minimum = 0
	maximum = 0
Injected packet rate average = 0.009
	minimum = 0.002 (at node 2)
	maximum = 0.02 (at node 13)
Accepted packet rate average = 0.00875
	minimum = 0.002 (at node 10)
	maximum = 0.016 (at node 1)
Injected flit rate average = 0.009
	minimum = 0.002 (at node 2)
	maximum = 0.02 (at node 13)
Accepted flit rate average= 0.00875
	minimum = 0.002 (at node 10)
	maximum = 0.016 (at node 1)
Injected packet length average = 1
Accepted packet length average = 1
Total in-flight flits = 4 (4 measured)
latency change    = 0.0633609
throughput change = 0.0714286
Class 0:
Packet latency average = 19.7181
	minimum = 7
	maximum = 37
Network latency average = 19.7181
	minimum = 7
	maximum = 37
Slowest packet = 6492
Flit latency average = 19.6821
	minimum = 7
	maximum = 37
Slowest flit = 6492
Fragmentation average = 0
	minimum = 0
	maximum = 0
Injected packet rate average = 0.0093125
	minimum = 0.007 (at node 2)
	maximum = 0.012 (at node 3)
Accepted packet rate average = 0.0094375
	minimum = 0.006 (at node 2)
	maximum = 0.014 (at node 1)
Injected flit rate average = 0.0093125
	minimum = 0.007 (at node 2)
	maximum = 0.012 (at node 3)
Accepted flit rate average= 0.0094375
	minimum = 0.006 (at node 2)
	maximum = 0.014 (at node 1)
Injected packet length average = 1
Accepted packet length average = 1
Total in-flight flits = 0 (0 measured)
latency change    = 0.00733292
throughput change = 0.0728477
Class 0:
Packet latency average = 19.814
	minimum = 7
	maximum = 37
Network latency average = 19.814
	minimum = 7
	maximum = 37
Slowest packet = 6492
Flit latency average = 19.788
	minimum = 7
	maximum = 37
Slowest flit = 6492
Fragmentation average = 0
	minimum = 0
	maximum = 0
Injected packet rate average = 0.00908333
	minimum = 0.00666667 (at node 2)
	maximum = 0.0113333 (at node 4)
Accepted packet rate average = 0.00904167
	minimum = 0.00666667 (at node 2)
	maximum = 0.012 (at node 3)
Injected flit rate average = 0.00908333
	minimum = 0.00666667 (at node 2)
	maximum = 0.0113333 (at node 4)
Accepted flit rate average= 0.00904167
	minimum = 0.00666667 (at node 2)
	maximum = 0.012 (at node 3)
Injected packet length average = 1
Accepted packet length average = 1
Total in-flight flits = 3 (3 measured)
latency change    = 0.00483663
throughput change = 0.0437788
Class 0:
Packet latency average = 19.8454
	minimum = 7
	maximum = 37
Network latency average = 19.8454
	minimum = 7
	maximum = 37
Slowest packet = 6492
Flit latency average = 19.8268
	minimum = 7
	maximum = 37
Slowest flit = 6492
Fragmentation average = 0
	minimum = 0
	maximum = 0
Injected packet rate average = 0.009625
	minimum = 0.007 (at node 6)
	maximum = 0.0115 (at node 3)
Accepted packet rate average = 0.0095625
	minimum = 0.0075 (at node 9)
	maximum = 0.0125 (at node 3)
Injected flit rate average = 0.009625
	minimum = 0.007 (at node 6)
	maximum = 0.0115 (at node 3)
Accepted flit rate average= 0.0095625
	minimum = 0.0075 (at node 9)
	maximum = 0.0125 (at node 3)
Injected packet length average = 1
Accepted packet length average = 1
Total in-flight flits = 4 (4 measured)
latency change    = 0.00158431
throughput change = 0.0544662
Class 0:
Packet latency average = 20.1522
	minimum = 7
	maximum = 37
Network latency average = 20.1522
	minimum = 7
	maximum = 37
Slowest packet = 6492
Flit latency average = 20.1358
	minimum = 7
	maximum = 37
Slowest flit = 6492
Fragmentation average = 0
	minimum = 0
	maximum = 0
Injected packet rate average = 0.00955
	minimum = 0.0072 (at node 12)
	maximum = 0.012 (at node 8)
Accepted packet rate average = 0.009575
	minimum = 0.0064 (at node 9)
	maximum = 0.0128 (at node 3)
Injected flit rate average = 0.00955
	minimum = 0.0072 (at node 12)
	maximum = 0.012 (at node 8)
Accepted flit rate average= 0.009575
	minimum = 0.0064 (at node 9)
	maximum = 0.0128 (at node 3)
Injected packet length average = 1
Accepted packet length average = 1
Total in-flight flits = 1 (1 measured)
latency change    = 0.0152259
throughput change = 0.00130548
Class 0:
Packet latency average = 19.9666
	minimum = 7
	maximum = 37
Network latency average = 19.9666
	minimum = 7
	maximum = 37
Slowest packet = 6492
Flit latency average = 19.9534
	minimum = 7
	maximum = 37
Slowest flit = 6492
Fragmentation average = 0
	minimum = 0
	maximum = 0
Injected packet rate average = 0.00941667
	minimum = 0.00666667 (at node 12)
	maximum = 0.0116667 (at node 8)
Accepted packet rate average = 0.00939583
	minimum = 0.00666667 (at node 9)
	maximum = 0.013 (at node 14)
Injected flit rate average = 0.00941667
	minimum = 0.00666667 (at node 12)
	maximum = 0.0116667 (at node 8)
Accepted flit rate average= 0.00939583
	minimum = 0.00666667 (at node 9)
	maximum = 0.013 (at node 14)
Injected packet length average = 1
Accepted packet length average = 1
Total in-flight flits = 3 (3 measured)
latency change    = 0.00929746
throughput change = 0.0190687
Class 0:
Packet latency average = 19.709
	minimum = 7
	maximum = 37
Network latency average = 19.709
	minimum = 7
	maximum = 37
Slowest packet = 6492
Flit latency average = 19.6989
	minimum = 7
	maximum = 37
Slowest flit = 6492
Fragmentation average = 0
	minimum = 0
	maximum = 0
Injected packet rate average = 0.00971429
	minimum = 0.00742857 (at node 12)
	maximum = 0.0128571 (at node 4)
Accepted packet rate average = 0.00960714
	minimum = 0.00714286 (at node 9)
	maximum = 0.0131429 (at node 14)
Injected flit rate average = 0.00971429
	minimum = 0.00742857 (at node 12)
	maximum = 0.0128571 (at node 4)
Accepted flit rate average= 0.00960714
	minimum = 0.00714286 (at node 9)
	maximum = 0.0131429 (at node 14)
Injected packet length average = 1
Accepted packet length average = 1
Total in-flight flits = 8 (8 measured)
latency change    = 0.0130721
throughput change = 0.021995
Draining all recorded packets ...
Draining remaining packets ...
Time taken is 5057 cycles
Class 0:
Packet latency average = 20.5897
	minimum = 7
	maximum = 37
Network latency average = 20.5897
	minimum = 7
	maximum = 37
Slowest packet = 6998
Flit latency average = 20.5897
	minimum = 7
	maximum = 37
Slowest flit = 6998
Fragmentation average = 0
	minimum = 0
	maximum = 0
Injected packet rate average = 0.009875
	minimum = 0.004 (at node 15)
	maximum = 0.014 (at node 4)
Accepted packet rate average = 0.00975
	minimum = 0.002 (at node 0)
	maximum = 0.016 (at node 3)
Injected flit rate average = 0.009875
	minimum = 0.004 (at node 15)
	maximum = 0.014 (at node 4)
Accepted flit rate average= 0.00975
	minimum = 0.002 (at node 0)
	maximum = 0.016 (at node 3)
Injected packet length average = 1
Accepted packet length average = 1
Total in-flight flits = 1 (0 measured)
latency change    = 1
throughput change = 1
Class 0:
Packet latency average = 19.8684
	minimum = 7
	maximum = 37
Network latency average = 19.8684
	minimum = 7
	maximum = 37
Slowest packet = 6998
Flit latency average = 19.8684
	minimum = 7
	maximum = 37
Slowest flit = 6998
Fragmentation average = 0
	minimum = 0
	maximum = 0
Injected packet rate average = 0.0096875
	minimum = 0.007 (at node 15)
	maximum = 0.014 (at node 8)
Accepted packet rate average = 0.0095
	minimum = 0.003 (at node 6)
	maximum = 0.013 (at node 4)
Injected flit rate average = 0.0096875
	minimum = 0.007 (at node 15)
	maximum = 0.014 (at node 8)
Accepted flit rate average= 0.0095
	minimum = 0.003 (at node 6)
	maximum = 0.013 (at node 4)
Injected packet length average = 1
Accepted packet length average = 1
Total in-flight flits = 3 (0 measured)
latency change    = 0.036305
throughput change = 0.0263158
Class 0:
Packet latency average = 20.5465
	minimum = 7
	maximum = 37
Network latency average = 20.5465
	minimum = 7
	maximum = 37
Slowest packet = 7169
Flit latency average = 20.5465
	minimum = 7
	maximum = 37
Slowest flit = 7169
Fragmentation average = 0
	minimum = 0
	maximum = 0
Injected packet rate average = 0.01075
	minimum = 0.002 (at node 6)
	maximum = 0.022 (at node 15)
Accepted packet rate average = 0.01075
	minimum = 0.002 (at node 6)
	maximum = 0.026 (at node 4)
Injected flit rate average = 0.01075
	minimum = 0.002 (at node 6)
	maximum = 0.022 (at node 15)
Accepted flit rate average= 0.01075
	minimum = 0.002 (at node 6)
	maximum = 0.026 (at node 4)
Injected packet length average = 1
Accepted packet length average = 1
Total in-flight flits = 3 (0 measured)
latency change    = 0.0330027
throughput change = 0.116279
Warmed up ...Time used is 1500 cycles
Class 0:
Packet latency average = 19.9221
	minimum = 7
	maximum = 37
Network latency average = 19.9221
	minimum = 7
	maximum = 37
Slowest packet = 7242
Flit latency average = 20.1875
	minimum = 7
	maximum = 37
Slowest flit = 7242
Fragmentation average = 0
	minimum = 0
	maximum = 0
Injected packet rate average = 0.009625
	minimum = 0.002 (at node 15)
	maximum = 0.018 (at node 3)
Accepted packet rate average = 0.01
	minimum = 0 (at node 11)
	maximum = 0.014 (at node 3)
Injected flit rate average = 0.009625
	minimum = 0.002 (at node 15)
	maximum = 0.018 (at node 3)
Accepted flit rate average= 0.01
	minimum = 0 (at node 11)
	maximum = 0.014 (at node 3)
Injected packet length average = 1
Accepted packet length average = 1
Total in-flight flits = 0 (0 measured)
latency change    = 0.0313438
throughput change = 0.075
Class 0:
Packet latency average = 20.0645
	minimum = 7
	maximum = 37
Network latency average = 20.0645
	minimum = 7
	maximum = 37
Slowest packet = 7242
Flit latency average = 20.1962
	minimum = 7
	maximum = 37
Slowest flit = 7242
Fragmentation average = 0
	minimum = 0
	maximum = 0
Injected packet rate average = 0.0098125
	minimum = 0.005 (at node 13)
	maximum = 0.014 (at node 1)
Accepted packet rate average = 0.009875
	minimum = 0.006 (at node 11)
	maximum = 0.014 (at node 10)
Injected flit rate average = 0.0098125
	minimum = 0.005 (at node 13)
	maximum = 0.014 (at node 1)
Accepted flit rate average= 0.009875
	minimum = 0.006 (at node 11)
	maximum = 0.014 (at node 10)
Injected packet length average = 1
Accepted packet length average = 1
Total in-flight flits = 2 (2 measured)
latency change    = 0.00709901
throughput change = 0.0126582
Class 0:
Packet latency average = 19.9959
	minimum = 7
	maximum = 37
Network latency average = 19.9959
	minimum = 7
	maximum = 37
Slowest packet = 7242
Flit latency average = 20.081
	minimum = 7
	maximum = 37
Slowest flit = 7242
Fragmentation average = 0
	minimum = 0
	maximum = 0
Injected packet rate average = 0.0102917
	minimum = 0.00666667 (at node 10)
	maximum = 0.0146667 (at node 3)
[...]
Flit latency average = 19.8009
	minimum = 7
	maximum = 37
Slowest flit = 29627
Fragmentation average = 0
	minimum = 0
	maximum = 0
Injected packet rate average = 0.0095
	minimum = 0.00533333 (at node 11)
	maximum = 0.0153333 (at node 8)
Accepted packet rate average = 0.009625
	minimum = 0.00533333 (at node 6)
	maximum = 0.014 (at node 2)
Injected flit rate average = 0.0095
	minimum = 0.00533333 (at node 11)
	maximum = 0.0153333 (at node 8)
Accepted flit rate average= 0.009625
	minimum = 0.00533333 (at node 6)
	maximum = 0.014 (at node 2)
Injected packet length average = 1
Accepted packet length average = 1
Total in-flight flits = 3 (3 measured)
latency change    = 0.0111382
throughput change = 0.0649351
Class 0:
Packet latency average = 19.3844
	minimum = 7
	maximum = 37
Network latency average = 19.3844
	minimum = 7
	maximum = 37
Slowest packet = 29627
Flit latency average = 19.4185
	minimum = 7
	maximum = 37
Slowest flit = 29627
Fragmentation average = 0
	minimum = 0
	maximum = 0
Injected packet rate average = 0.0096875
	minimum = 0.0055 (at node 11)
	maximum = 0.013 (at node 8)
Accepted packet rate average = 0.00978125
	minimum = 0.006 (at node 10)
	maximum = 0.0125 (at node 2)
Injected flit rate average = 0.0096875
	minimum = 0.0055 (at node 11)
	maximum = 0.013 (at node 8)
Accepted flit rate average= 0.00978125
	minimum = 0.006 (at node 10)
	maximum = 0.0125 (at node 2)
Injected packet length average = 1
Accepted packet length average = 1
Total in-flight flits = 3 (3 measured)
latency change    = 0.0196075
throughput change = 0.0159744
Class 0:
Packet latency average = 19.4751
	minimum = 7
	maximum = 37
Network latency average = 19.4751
	minimum = 7
	maximum = 37
Slowest packet = 29627
Flit latency average = 19.5013
	minimum = 7
	maximum = 37
Slowest flit = 29627
Fragmentation average = 0
	minimum = 0
	maximum = 0
Injected packet rate average = 0.0096
	minimum = 0.006 (at node 11)
	maximum = 0.0116 (at node 6)
Accepted packet rate average = 0.009675
	minimum = 0.0068 (at node 6)
	maximum = 0.0116 (at node 2)
Injected flit rate average = 0.0096
	minimum = 0.006 (at node 11)
	maximum = 0.0116 (at node 6)
Accepted flit rate average= 0.009675
	minimum = 0.0068 (at node 6)
	maximum = 0.0116 (at node 2)
Injected packet length average = 1
Accepted packet length average = 1
Total in-flight flits = 3 (3 measured)
latency change    = 0.00465728
throughput change = 0.0109819
Class 0:
Packet latency average = 19.3092
	minimum = 7
	maximum = 37
Network latency average = 19.3092
	minimum = 7
	maximum = 37
Slowest packet = 29627
Flit latency average = 19.3326
	minimum = 7
	maximum = 37
Slowest flit = 29627
Fragmentation average = 0
	minimum = 0
	maximum = 0
Injected packet rate average = 0.0098125
	minimum = 0.00633333 (at node 11)
	maximum = 0.0116667 (at node 0)
Accepted packet rate average = 0.00989583
	minimum = 0.00733333 (at node 8)
	maximum = 0.0126667 (at node 11)
Injected flit rate average = 0.0098125
	minimum = 0.00633333 (at node 11)
	maximum = 0.0116667 (at node 0)
Accepted flit rate average= 0.00989583
	minimum = 0.00733333 (at node 8)
	maximum = 0.0126667 (at node 11)
Injected packet length average = 1
Accepted packet length average = 1
Total in-flight flits = 2 (2 measured)
latency change    = 0.00859163
throughput change = 0.0223158
Draining all recorded packets ...
Draining remaining packets ...
Time taken is 4544 cycles
Class 0:
Packet latency average = 18.3936
	minimum = 7
	maximum = 32
Network latency average = 18.3936
	minimum = 7
	maximum = 32
Slowest packet = 30030
Flit latency average = 18.3936
	minimum = 7
	maximum = 32
Slowest flit = 30030
Fragmentation average = 0
	minimum = 0
	maximum = 0
Injected packet rate average = 0.01175
	minimum = 0.002 (at node 4)
	maximum = 0.02 (at node 9)
Accepted packet rate average = 0.01175
	minimum = 0.004 (at node 7)
	maximum = 0.02 (at node 5)
Injected flit rate average = 0.01175
	minimum = 0.002 (at node 4)
	maximum = 0.02 (at node 9)
Accepted flit rate average= 0.01175
	minimum = 0.004 (at node 7)
	maximum = 0.02 (at node 5)
Injected packet length average = 1
Accepted packet length average = 1
Total in-flight flits = 0 (0 measured)
latency change    = 1
throughput change = 1
Class 0:
Packet latency average = 18.8698
	minimum = 7
	maximum = 32
Network latency average = 18.8698
	minimum = 7
	maximum = 32
Slowest packet = 30030
Flit latency average = 18.8698
	minimum = 7
	maximum = 32
Slowest flit = 30030
Fragmentation average = 0
	minimum = 0
	maximum = 0
Injected packet rate average = 0.01075
	minimum = 0.006 (at node 4)
	maximum = 0.015 (at node 3)
Accepted packet rate average = 0.0105625
	minimum = 0.006 (at node 3)
	maximum = 0.016 (at node 8)
Injected flit rate average = 0.01075
	minimum = 0.006 (at node 4)
	maximum = 0.015 (at node 3)
Accepted flit rate average= 0.0105625
	minimum = 0.006 (at node 3)
	maximum = 0.016 (at node 8)
Injected packet length average = 1
Accepted packet length average = 1
Total in-flight flits = 3 (0 measured)
latency change    = 0.0252364
throughput change = 0.112426
Class 0:
Packet latency average = 19.5
	minimum = 7
	maximum = 32
Network latency average = 19.5
	minimum = 7
	maximum = 32
Slowest packet = 30194
Flit latency average = 19.5
	minimum = 7
	maximum = 32
Slowest flit = 30194
Fragmentation average = 0
	minimum = 0
	maximum = 0
Injected packet rate average = 0.00675
	minimum = 0 (at node 3)
	maximum = 0.016 (at node 6)
Accepted packet rate average = 0.007
	minimum = 0.002 (at node 0)
	maximum = 0.018 (at node 13)
Injected flit rate average = 0.00675
	minimum = 0 (at node 3)
	maximum = 0.016 (at node 6)
Accepted flit rate average= 0.007
	minimum = 0.002 (at node 0)
	maximum = 0.018 (at node 13)
Injected packet length average = 1
Accepted packet length average = 1
Total in-flight flits = 1 (0 measured)
latency change    = 0.0323168
throughput change = 0.508929
Warmed up ...Time used is 1500 cycles
Class 0:
Packet latency average = 21.5735
	minimum = 7
	maximum = 37
Network latency average = 21.5735
	minimum = 7
	maximum = 37
Slowest packet = 30265
Flit latency average = 21.4348
	minimum = 7
	maximum = 37
Slowest flit = 30265
Fragmentation average = 0
	minimum = 0
	maximum = 0
Injected packet rate average = 0.008875
	minimum = 0.002 (at node 3)
	maximum = 0.014 (at node 5)
Accepted packet rate average = 0.008625
	minimum = 0.002 (at node 5)
	maximum = 0.018 (at node 3)
Injected flit rate average = 0.008875
	minimum = 0.002 (at node 3)
	maximum = 0.014 (at node 5)
Accepted flit rate average= 0.008625
	minimum = 0.002 (at node 5)
	maximum = 0.018 (at node 3)
Injected packet length average = 1
Accepted packet length average = 1
Total in-flight flits = 3 (3 measured)
latency change    = 0.0961145
throughput change = 0.188406
Class 0:
Packet latency average = 20.4805
	minimum = 7
	maximum = 37
Network latency average = 20.4805
	minimum = 7
	maximum = 37
Slowest packet = 30265
Flit latency average = 20.4258
	minimum = 7
	maximum = 37
Slowest flit = 30265
Fragmentation average = 0
	minimum = 0
	maximum = 0
Injected packet rate average = 0.009875
	minimum = 0.006 (at node 3)
	maximum = 0.015 (at node 9)
Accepted packet rate average = 0.0096875
	minimum = 0.006 (at node 0)
	maximum = 0.015 (at node 3)
Injected flit rate average = 0.009875
	minimum = 0.006 (at node 3)
	maximum = 0.015 (at node 9)
Accepted flit rate average= 0.0096875
	minimum = 0.006 (at node 0)
	maximum = 0.015 (at node 3)
Injected packet length average = 1
Accepted packet length average = 1
Total in-flight flits = 4 (4 measured)
latency change    = 0.0533683
throughput change = 0.109677
Class 0:
Packet latency average = 20.3583
	minimum = 7
	maximum = 37
Network latency average = 20.3583
	minimum = 7
	maximum = 37
Slowest packet = 30265
Flit latency average = 20.3237
	minimum = 7
	maximum = 37
Slowest flit = 30265
Fragmentation average = 0
	minimum = 0
	maximum = 0
Injected packet rate average = 0.0100417
	minimum = 0.00666667 (at node 1)
	maximum = 0.016 (at node 13)
Accepted packet rate average = 0.0100417
	minimum = 0.00666667 (at node 5)
	maximum = 0.0133333 (at node 10)
Injected flit rate average = 0.0100417
	minimum = 0.00666667 (at node 1)
	maximum = 0.016 (at node 13)
Accepted flit rate average= 0.0100417
	minimum = 0.00666667 (at node 5)
	maximum = 0.0133333 (at node 10)
Injected packet length average = 1
Accepted packet length average = 1
Total in-flight flits = 1 (1 measured)
latency change    = 0.00600178
throughput change = 0.0352697
Class 0:
Packet latency average = 19.9969
	minimum = 7
	maximum = 37
Network latency average = 19.9969
	minimum = 7
	maximum = 37
Slowest packet = 30265
Flit latency average = 19.9719
	minimum = 7
	maximum = 37
Slowest flit = 30265
Fragmentation average = 0
	minimum = 0
	maximum = 0
Injected packet rate average = 0.0100625
	minimum = 0.0065 (at node 3)
	maximum = 0.015 (at node 13)
Accepted packet rate average = 0.01
	minimum = 0.007 (at node 0)
	maximum = 0.013 (at node 10)
Injected flit rate average = 0.0100625
	minimum = 0.0065 (at node 3)
	maximum = 0.015 (at node 13)
Accepted flit rate average= 0.01
	minimum = 0.007 (at node 0)
	maximum = 0.013 (at node 10)
Injected packet length average = 1
Accepted packet length average = 1
Total in-flight flits = 3 (3 measured)
latency change    = 0.0180762
throughput change = 0.00416667
Class 0:
Packet latency average = 19.8
	minimum = 7
	maximum = 37
Network latency average = 19.8
	minimum = 7
	maximum = 37
Slowest packet = 30265
Flit latency average = 19.7803
	minimum = 7
	maximum = 37
Slowest flit = 30265
Fragmentation average = 0
	minimum = 0
	maximum = 0
Injected packet rate average = 0.009925
	minimum = 0.0064 (at node 3)
	maximum = 0.0128 (at node 13)
Accepted packet rate average = 0.0099
	minimum = 0.0068 (at node 0)
	maximum = 0.0128 (at node 7)
Injected flit rate average = 0.009925
	minimum = 0.0064 (at node 3)
	maximum = 0.0128 (at node 13)
Accepted flit rate average= 0.0099
	minimum = 0.0068 (at node 0)
	maximum = 0.0128 (at node 7)
Injected packet length average = 1
Accepted packet length average = 1
Total in-flight flits = 2 (2 measured)
latency change    = 0.00994269
throughput change = 0.010101
Draining all recorded packets ...
Draining remaining packets ...
Time taken is 4043 cycles
Class 0:
Packet latency average = 20.5075
	minimum = 7
	maximum = 37
Network latency average = 20.5075
	minimum = 7
	maximum = 37
Slowest packet = 30664
Flit latency average = 20.5075
	minimum = 7
	maximum = 37
Slowest flit = 30664
Fragmentation average = 0
	minimum = 0
	maximum = 0
Injected packet rate average = 0.00875
	minimum = 0.002 (at node 2)
	maximum = 0.016 (at node 11)
Accepted packet rate average = 0.008375
	minimum = 0.002 (at node 11)
	maximum = 0.018 (at node 14)
Injected flit rate average = 0.00875
	minimum = 0.002 (at node 2)
	maximum = 0.016 (at node 11)
Accepted flit rate average= 0.008375
	minimum = 0.002 (at node 11)
	maximum = 0.018 (at node 14)
Injected packet length average = 1
Accepted packet length average = 1
Total in-flight flits = 3 (0 measured)
latency change    = 1
throughput change = 1
Class 0:
Packet latency average = 20.2866
	minimum = 7
	maximum = 37
Network latency average = 20.2866
	minimum = 7
	maximum = 37
Slowest packet = 30664
Flit latency average = 20.2866
	minimum = 7
	maximum = 37
Slowest flit = 30664
Fragmentation average = 0
	minimum = 0
	maximum = 0
Injected packet rate average = 0.0099375
	minimum = 0.005 (at node 13)
	maximum = 0.016 (at node 7)
Accepted packet rate average = 0.0098125
	minimum = 0.005 (at node 11)
	maximum = 0.015 (at node 12)
Injected flit rate average = 0.0099375
	minimum = 0.005 (at node 13)
	maximum = 0.016 (at node 7)
Accepted flit rate average= 0.0098125
	minimum = 0.005 (at node 11)
	maximum = 0.015 (at node 12)
Injected packet length average = 1
Accepted packet length average = 1
Total in-flight flits = 2 (0 measured)
latency change    = 0.0108859
throughput change = 0.146497
Class 0:
Packet latency average = 19.7206
	minimum = 7
	maximum = 32
Network latency average = 19.7206
	minimum = 7
	maximum = 32
Slowest packet = 30821
Flit latency average = 19.7206
	minimum = 7
	maximum = 32
Slowest flit = 30821
Fragmentation average = 0
	minimum = 0
	maximum = 0
Injected packet rate average = 0.008625
	minimum = 0.002 (at node 1)
	maximum = 0.016 (at node 14)
Accepted packet rate average = 0.0085
	minimum = 0.004 (at node 4)
	maximum = 0.018 (at node 15)
Injected flit rate average = 0.008625
	minimum = 0.002 (at node 1)
	maximum = 0.016 (at node 14)
Accepted flit rate average= 0.0085
	minimum = 0.004 (at node 4)
	maximum = 0.018 (at node 15)
Injected packet length average = 1
Accepted packet length average = 1
Total in-flight flits = 3 (0 measured)
latency change    = 0.0287028
throughput change = 0.154412
Warmed up ...Time used is 1500 cycles
Class 0:
Packet latency average = 18.7808
	minimum = 7
	maximum = 37
Network latency average = 18.7808
	minimum = 7
	maximum = 37
Slowest packet = 30945
Flit latency average = 18.9737
	minimum = 7
	maximum = 37
Slowest flit = 30945
Fragmentation average = 0
	minimum = 0
	maximum = 0
Injected packet rate average = 0.009375
	minimum = 0.002 (at node 3)
	maximum = 0.024 (at node 13)
Accepted packet rate average = 0.0095
	minimum = 0.002 (at node 6)
	maximum = 0.02 (at node 11)
Injected flit rate average = 0.009375
	minimum = 0.002 (at node 3)
	maximum = 0.024 (at node 13)
Accepted flit rate average= 0.0095
	minimum = 0.002 (at node 6)
	maximum = 0.02 (at node 11)
Injected packet length average = 1
Accepted packet length average = 1
Total in-flight flits = 2 (2 measured)
latency change    = 0.0500386
throughput change = 0.105263
Class 0:
Packet latency average = 19.028
	minimum = 7
	maximum = 37
Network latency average = 19.028
	minimum = 7
	maximum = 37
Slowest packet = 30945
Flit latency average = 19.1233
	minimum = 7
	maximum = 37
Slowest flit = 30945
Fragmentation average = 0
	minimum = 0
	maximum = 0
Injected packet rate average = 0.0090625
	minimum = 0.005 (at node 4)
	maximum = 0.022 (at node 13)
Accepted packet rate average = 0.009125
	minimum = 0.006 (at node 5)
	maximum = 0.015 (at node 11)
Injected flit rate average = 0.0090625
	minimum = 0.005 (at node 4)
	maximum = 0.022 (at node 13)
Accepted flit rate average= 0.009125
	minimum = 0.006 (at node 5)
	maximum = 0.015 (at node 11)
Injected packet length average = 1
Accepted packet length average = 1
Total in-flight flits = 2 (2 measured)
latency change    = 0.0129888
throughput change = 0.0410959
Class 0:
Packet latency average = 18.7692
	minimum = 7
	maximum = 37
Network latency average = 18.7692
	minimum = 7
	maximum = 37
Slowest packet = 30945
Flit latency average = 18.8348
	minimum = 7
	maximum = 37
Slowest flit = 30945
Fragmentation average = 0
	minimum = 0
	maximum = 0
Injected packet rate average = 0.00945833
	minimum = 0.006 (at node 4)
	maximum = 0.0166667 (at node 13)
Accepted packet rate average = 0.00933333
	minimum = 0.006 (at node 5)
	maximum = 0.0146667 (at node 11)
Injected flit rate average = 0.00945833
	minimum = 0.006 (at node 4)
	maximum = 0.0166667 (at node 13)
Accepted flit rate average= 0.00933333
	minimum = 0.006 (at node 5)
	maximum = 0.0146667 (at node 11)
Injected packet length average = 1
Accepted packet length average = 1
Total in-flight flits = 6 (6 measured)
latency change    = 0.0137854
throughput change = 0.0223214
Class 0:
Packet latency average = 19.1079
	minimum = 7
	maximum = 39
Network latency average = 19.1079
	minimum = 7
	maximum = 39
Slowest packet = 31103
Flit latency average = 19.1509
	minimum = 7
	maximum = 39
Slowest flit = 31103
Fragmentation average = 0
	minimum = 0
	maximum = 0
Injected packet rate average = 0.00996875
	minimum = 0.0065 (at node 4)
	maximum = 0.0155 (at node 13)
Accepted packet rate average = 0.0099375
	minimum = 0.0075 (at node 8)
	maximum = 0.015 (at node 11)
Injected flit rate average = 0.00996875
	minimum = 0.0065 (at node 4)
	maximum = 0.0155 (at node 13)
Accepted flit rate average= 0.0099375
	minimum = 0.0075 (at node 8)
	maximum = 0.015 (at node 11)
Injected packet length average = 1
Accepted packet length average = 1
Total in-flight flits = 4 (4 measured)
latency change    = 0.0177259
throughput change = 0.0607966
Class 0:
Packet latency average = 19.2274
	minimum = 7
	maximum = 39
Network latency average = 19.2274
	minimum = 7
	maximum = 39
Slowest packet = 31103
Flit latency average = 19.2597
	minimum = 7
	maximum = 39
Slowest flit = 31103
Fragmentation average = 0
	minimum = 0
	maximum = 0
Injected packet rate average = 0.01025
	minimum = 0.0068 (at node 12)
	maximum = 0.014 (at node 1)
Accepted packet rate average = 0.0103
	minimum = 0.008 (at node 5)
	maximum = 0.0136 (at node 11)
Injected flit rate average = 0.01025
	minimum = 0.0068 (at node 12)
	maximum = 0.014 (at node 1)
Accepted flit rate average= 0.0103
	minimum = 0.008 (at node 5)
	maximum = 0.0136 (at node 11)
Injected packet length average = 1
Accepted packet length average = 1
Total in-flight flits = 1 (1 measured)
latency change    = 0.00621236
throughput change = 0.0351942
Class 0:
Packet latency average = 19.3538
	minimum = 7
	maximum = 39
Network latency average = 19.3538
	minimum = 7
	maximum = 39
Slowest packet = 31103
Flit latency average = 19.3811
	minimum = 7
	maximum = 39
Slowest flit = 31103
Fragmentation average = 0
	minimum = 0
	maximum = 0
Injected packet rate average = 0.00989583
	minimum = 0.007 (at node 11)
	maximum = 0.0133333 (at node 1)
Accepted packet rate average = 0.00989583
	minimum = 0.00733333 (at node 5)
	maximum = 0.0133333 (at node 1)
Injected flit rate average = 0.00989583
	minimum = 0.007 (at node 11)
	maximum = 0.0133333 (at node 1)
Accepted flit rate average= 0.00989583
	minimum = 0.00733333 (at node 5)
	maximum = 0.0133333 (at node 1)
Injected packet length average = 1
Accepted packet length average = 1
Total in-flight flits = 3 (3 measured)
latency change    = 0.00653255
throughput change = 0.0408421
Class 0:
Packet latency average = 19.1893
	minimum = 7
	maximum = 39
Network latency average = 19.1893
	minimum = 7
	maximum = 39
Slowest packet = 31103
Flit latency average = 19.2131
	minimum = 7
	maximum = 39
Slowest flit = 31103
Fragmentation average = 0
	minimum = 0
	maximum = 0
Injected packet rate average = 0.0100536
	minimum = 0.00771429 (at node 0)
	maximum = 0.0128571 (at node 1)
Accepted packet rate average = 0.0100536
	minimum = 0.00714286 (at node 10)
	maximum = 0.0137143 (at node 1)
Injected flit rate average = 0.0100536
	minimum = 0.00771429 (at node 0)
	maximum = 0.0128571 (at node 1)
Accepted flit rate average= 0.0100536
	minimum = 0.00714286 (at node 10)
	maximum = 0.0137143 (at node 1)
Injected packet length average = 1
Accepted packet length average = 1
Total in-flight flits = 3 (3 measured)
latency change    = 0.00857394
throughput change = 0.0156898
Draining all recorded packets ...
Draining remaining packets ...
Time taken is 5028 cycles
====== Overall Traffic Statistics ======
====== Traffic class 0 ======
Packet latency average = 19.5303 (50 samples)
	minimum = 7 (50 samples)
	maximum = 37.12 (50 samples)
Network latency average = 19.5303 (50 samples)
	minimum = 7 (50 samples)
	maximum = 37.12 (50 samples)
Flit latency average = 19.5462 (50 samples)
	minimum = 7 (50 samples)
	maximum = 37.12 (50 samples)
Fragmentation average = 0 (50 samples)
	minimum = 0 (50 samples)
	maximum = 0 (50 samples)
Injected packet rate average = 0.0100419 (50 samples)
	minimum = 0.00659952 (50 samples)
	maximum = 0.0134674 (50 samples)
Accepted packet rate average = 0.0100364 (50 samples)
	minimum = 0.00641162 (50 samples)
	maximum = 0.0141472 (50 samples)
Injected flit rate average = 0.0100419 (50 samples)
	minimum = 0.00659952 (50 samples)
	maximum = 0.0134674 (50 samples)
Accepted flit rate average = 0.0100364 (50 samples)
	minimum = 0.00641162 (50 samples)
	maximum = 0.0141472 (50 samples)
Injected packet size average = 1 (50 samples)
Accepted packet size average = 1 (50 samples)
Hops average = 3.50452 (50 samples)
Total run time 3.22879
