BEGIN Configuration File: /tmp/tmpnfxz1eph.cfg
topology = mesh;
k = 4;
n = 2;
routing_function = planar_adapt;
num_vcs = 4;
vc_buf_size = 4;
wait_for_tail_credit = 1;
vc_allocator = islip;
sw_allocator = islip;
alloc_iters = 1;
credit_delay = 2;
routing_delay = 1;
vc_alloc_delay = 1;
sw_alloc_delay = 1;
input_speedup = 2;
output_speedup = 1;
internal_speedup = 1.0;
traffic = uniform;
packet_size = 1;
sim_type = latency;
injection_rate = 0.1;
warmup_periods = 3;
sample_period = 500;
sim_count = 50;
seed = 0;
link_failures = 2;
fail_seed = 101;

END Configuration File: /tmp/tmpnfxz1eph.cfg
failure at node 14, channel 0 (1/2)
failure at node 12, channel 0 (2/2)
Class 0:
Packet latency average = 21.6306
	minimum = 7
	maximum = 65
Network latency average = 21.6081
	minimum = 7
	maximum = 65
Slowest packet = 437
Flit latency average = 21.6081
	minimum = 7
	maximum = 65
Slowest flit = 437
Fragmentation average = 0
	minimum = 0
	maximum = 0
Injected packet rate average = 0.092625
	minimum = 0.06 (at node 8)
	maximum = 0.112 (at node 13)
Accepted packet rate average = 0.089
	minimum = 0.072 (at node 11)
	maximum = 0.102 (at node 0)
Injected flit rate average = 0.092625
	minimum = 0.06 (at node 8)
	maximum = 0.112 (at node 13)
Accepted flit rate average= 0.089
	minimum = 0.072 (at node 11)
	maximum = 0.102 (at node 0)
Injected packet length average = 1
Accepted packet length average = 1
Total in-flight flits = 29 (0 measured)
latency change    = 1
throughput change = 1
Class 0:
Packet latency average = 25.9879
	minimum = 7
	maximum = 217
Network latency average = 24.2607
	minimum = 7
	maximum = 155
Slowest packet = 797
Flit latency average = 24.2607
	minimum = 7
	maximum = 155
Slowest flit = 797
Fragmentation average = 0
	minimum = 0
	maximum = 0
Injected packet rate average = 0.095625
	minimum = 0.079 (at node 7)
	maximum = 0.113 (at node 13)
Accepted packet rate average = 0.09325
	minimum = 0.079 (at node 3)
	maximum = 0.105 (at node 8)
Injected flit rate average = 0.095625
	minimum = 0.079 (at node 7)
	maximum = 0.113 (at node 13)
Accepted flit rate average= 0.09325
	minimum = 0.079 (at node 3)
	maximum = 0.105 (at node 8)
Injected packet length average = 1
Accepted packet length average = 1
Total in-flight flits = 39 (0 measured)
latency change    = 0.167667
throughput change = 0.0455764
Class 0:
Packet latency average = 31.6817
	minimum = 7
	maximum = 230
Network latency average = 25.8593
	minimum = 7
	maximum = 159
Slowest packet = 1394
Flit latency average = 25.8593
	minimum = 7
	maximum = 159
Slowest flit = 1874
Fragmentation average = 0
	minimum = 0
	maximum = 0
Injected packet rate average = 0.0925
	minimum = 0.068 (at node 3)
	maximum = 0.108 (at node 2)
Accepted packet rate average = 0.0915
	minimum = 0.07 (at node 4)
	maximum = 0.104 (at node 15)
Injected flit rate average = 0.0925
	minimum = 0.068 (at node 3)
	maximum = 0.108 (at node 2)
Accepted flit rate average= 0.0915
	minimum = 0.07 (at node 4)
	maximum = 0.104 (at node 15)
Injected packet length average = 1
Accepted packet length average = 1
Total in-flight flits = 47 (0 measured)
latency change    = 0.179718
throughput change = 0.0191257
Warmed up ...Time used is 1500 cycles
Class 0:
Packet latency average = 31.0499
	minimum = 7
	maximum = 242
Network latency average = 24.1842
	minimum = 7
	maximum = 122
Slowest packet = 2281
Flit latency average = 24.9935
	minimum = 7
	maximum = 122
Slowest flit = 2741
Fragmentation average = 0
	minimum = 0
	maximum = 0
Injected packet rate average = 0.095125
	minimum = 0.068 (at node 9)
	maximum = 0.114 (at node 5)
Accepted packet rate average = 0.096125
	minimum = 0.074 (at node 8)
	maximum = 0.118 (at node 2)
Injected flit rate average = 0.095125
	minimum = 0.068 (at node 9)
	maximum = 0.114 (at node 5)
Accepted flit rate average= 0.096125
	minimum = 0.074 (at node 8)
	maximum = 0.118 (at node 2)
Injected packet length average = 1
Accepted packet length average = 1
Total in-flight flits = 39 (39 measured)
latency change    = 0.020349
throughput change = 0.0481144
Class 0:
Packet latency average = 31.9023
	minimum = 7
	maximum = 283
Network latency average = 24.7023
	minimum = 7
	maximum = 181
Slowest packet = 2281
Flit latency average = 25.0755
	minimum = 7
	maximum = 181
Slowest flit = 3329
Fragmentation average = 0
	minimum = 0
	maximum = 0
Injected packet rate average = 0.0996875
	minimum = 0.089 (at node 0)
	maximum = 0.116 (at node 1)
Accepted packet rate average = 0.100125
	minimum = 0.085 (at node 4)
	maximum = 0.127 (at node 6)
Injected flit rate average = 0.0996875
	minimum = 0.089 (at node 0)
	maximum = 0.116 (at node 1)
Accepted flit rate average= 0.100125
	minimum = 0.085 (at node 4)
	maximum = 0.127 (at node 6)
Injected packet length average = 1
Accepted packet length average = 1
Total in-flight flits = 40 (40 measured)
latency change    = 0.0267188
throughput change = 0.0399501
Class 0:
Packet latency average = 35.4142
	minimum = 7
	maximum = 521
Network latency average = 25.6233
	minimum = 7
	maximum = 193
Slowest packet = 2281
Flit latency average = 25.8576
	minimum = 7
	maximum = 193
Slowest flit = 4120
Fragmentation average = 0
	minimum = 0
	maximum = 0
Injected packet rate average = 0.098875
	minimum = 0.0886667 (at node 12)
	maximum = 0.108667 (at node 14)
Accepted packet rate average = 0.098625
	minimum = 0.0826667 (at node 4)
	maximum = 0.117333 (at node 6)
Injected flit rate average = 0.098875
	minimum = 0.0886667 (at node 12)
	maximum = 0.108667 (at node 14)
Accepted flit rate average= 0.098625
	minimum = 0.0826667 (at node 4)
	maximum = 0.117333 (at node 6)
Injected packet length average = 1
Accepted packet length average = 1
Total in-flight flits = 53 (53 measured)
latency change    = 0.0991684
throughput change = 0.0152091
Class 0:
Packet latency average = 39.4202
	minimum = 7
	maximum = 585
Network latency average = 26.017
	minimum = 7
	maximum = 193
Slowest packet = 2281
Flit latency average = 26.1867
	minimum = 7
	maximum = 193
Slowest flit = 4120
Fragmentation average = 0
	minimum = 0
	maximum = 0
Injected packet rate average = 0.099
	minimum = 0.0875 (at node 12)
	maximum = 0.11 (at node 1)
Accepted packet rate average = 0.09875
	minimum = 0.0835 (at node 4)
	maximum = 0.11 (at node 3)
Injected flit rate average = 0.099
	minimum = 0.0875 (at node 12)
	maximum = 0.11 (at node 1)
Accepted flit rate average= 0.09875
	minimum = 0.0835 (at node 4)
	maximum = 0.11 (at node 3)
Injected packet length average = 1
Accepted packet length average = 1
Total in-flight flits = 55 (55 measured)
latency change    = 0.101622
throughput change = 0.00126582
Class 0:
Packet latency average = 41.4172
	minimum = 7
	maximum = 734
Network latency average = 26.1752
	minimum = 7
	maximum = 193
Slowest packet = 2281
Flit latency average = 26.3095
	minimum = 7
	maximum = 193
Slowest flit = 4120
Fragmentation average = 0
	minimum = 0
	maximum = 0
Injected packet rate average = 0.09835
	minimum = 0.0828 (at node 12)
	maximum = 0.1068 (at node 14)
Accepted packet rate average = 0.098375
	minimum = 0.0848 (at node 4)
	maximum = 0.1092 (at node 3)
Injected flit rate average = 0.09835
	minimum = 0.0828 (at node 12)
	maximum = 0.1068 (at node 14)
Accepted flit rate average= 0.098375
	minimum = 0.0848 (at node 4)
	maximum = 0.1092 (at node 3)
Injected packet length average = 1
Accepted packet length average = 1
Total in-flight flits = 47 (47 measured)
latency change    = 0.0482169
throughput change = 0.00381194
Class 0:
Packet latency average = 44.7147
	minimum = 7
	maximum = 902
Network latency average = 26.1301
	minimum = 7
	maximum = 241
Slowest packet = 2281
Flit latency average = 26.243
	minimum = 7
	maximum = 241
Slowest flit = 5863
Fragmentation average = 0
	minimum = 0
	maximum = 0
Injected packet rate average = 0.0980208
	minimum = 0.082 (at node 12)
	maximum = 0.107 (at node 14)
Accepted packet rate average = 0.0978958
	minimum = 0.085 (at node 4)
	maximum = 0.107 (at node 3)
Injected flit rate average = 0.0980208
	minimum = 0.082 (at node 12)
	maximum = 0.107 (at node 14)
Accepted flit rate average= 0.0978958
	minimum = 0.085 (at node 4)
	maximum = 0.107 (at node 3)
Injected packet length average = 1
Accepted packet length average = 1
Total in-flight flits = 53 (53 measured)
latency change    = 0.0737467
throughput change = 0.00489466
Class 0:
Packet latency average = 49.1387
	minimum = 7
	maximum = 1049
Network latency average = 26.5107
	minimum = 7
	maximum = 241
Slowest packet = 2281
Flit latency average = 26.6041
	minimum = 7
	maximum = 241
Slowest flit = 5863
Fragmentation average = 0
	minimum = 0
	maximum = 0
Injected packet rate average = 0.0980179
	minimum = 0.0817143 (at node 12)
	maximum = 0.107429 (at node 14)
Accepted packet rate average = 0.0980536
	minimum = 0.0848571 (at node 4)
	maximum = 0.104 (at node 3)
Injected flit rate average = 0.0980179
	minimum = 0.0817143 (at node 12)
	maximum = 0.107429 (at node 14)
Accepted flit rate average= 0.0980536
	minimum = 0.0848571 (at node 4)
	maximum = 0.104 (at node 3)
Injected packet length average = 1
Accepted packet length average = 1
Total in-flight flits = 44 (44 measured)
latency change    = 0.0900296
throughput change = 0.00160869
Draining all recorded packets ...
Class 0:
Remaining flits: 9137 9179 9191 9201 9233 9238 9266 9269 9271 9273 [...] (52 flits)
Measured flits: 9137 9179 9191 9201 9323 9335 (6 flits)
Draining remaining packets ...
Time taken is 6450 cycles
Class 0:
Packet latency average = 30.4677
	minimum = 7
	maximum = 262
Network latency average = 24.7497
	minimum = 7
	maximum = 181
Slowest packet = 10052
Flit latency average = 24.7497
	minimum = 7
	maximum = 181
Slowest flit = 10052
Fragmentation average = 0
	minimum = 0
	maximum = 0
Injected packet rate average = 0.09925
	minimum = 0.076 (at node 11)
	maximum = 0.12 (at node 0)
Accepted packet rate average = 0.094875
	minimum = 0.072 (at node 15)
	maximum = 0.114 (at node 4)
Injected flit rate average = 0.09925
	minimum = 0.076 (at node 11)
	maximum = 0.12 (at node 0)
Accepted flit rate average= 0.094875
	minimum = 0.072 (at node 15)
	maximum = 0.114 (at node 4)
Injected packet length average = 1
Accepted packet length average = 1
Total in-flight flits = 36 (0 measured)
latency change    = 1
throughput change = 1
Class 0:
Packet latency average = 33.4321
	minimum = 7
	maximum = 320
Network latency average = 25.3496
	minimum = 7
	maximum = 181
Slowest packet = 10052
Flit latency average = 25.3496
	minimum = 7
	maximum = 181
Slowest flit = 10052
Fragmentation average = 0
	minimum = 0
	maximum = 0
Injected packet rate average = 0.0994375
	minimum = 0.084 (at node 12)
	maximum = 0.117 (at node 5)
Accepted packet rate average = 0.0970625
	minimum = 0.074 (at node 15)
	maximum = 0.108 (at node 3)
Injected flit rate average = 0.0994375
	minimum = 0.084 (at node 12)
	maximum = 0.117 (at node 5)
Accepted flit rate average= 0.0970625
	minimum = 0.074 (at node 15)
	maximum = 0.108 (at node 3)
Injected packet length average = 1
Accepted packet length average = 1
Total in-flight flits = 39 (0 measured)
latency change    = 0.0886678
throughput change = 0.022537
Class 0:
Packet latency average = 32.8724
	minimum = 7
	maximum = 438
Network latency average = 25.8635
	minimum = 7
	maximum = 243
Slowest packet = 11403
Flit latency average = 25.8635
	minimum = 7
	maximum = 243
Slowest flit = 11903
Fragmentation average = 0
	minimum = 0
	maximum = 0
Injected packet rate average = 0.099125
	minimum = 0.06 (at node 12)
	maximum = 0.12 (at node 2)
Accepted packet rate average = 0.098
	minimum = 0.074 (at node 4)
	maximum = 0.126 (at node 9)
Injected flit rate average = 0.099125
	minimum = 0.06 (at node 12)
	maximum = 0.12 (at node 2)
Accepted flit rate average= 0.098
	minimum = 0.074 (at node 4)
	maximum = 0.126 (at node 9)
Injected packet length average = 1
Accepted packet length average = 1
Total in-flight flits = 49 (0 measured)
latency change    = 0.0170239
throughput change = 0.00956633
Warmed up ...Time used is 1500 cycles
Class 0:
Packet latency average = 45.6255
	minimum = 7
	maximum = 628
Network latency average = 23.7984
	minimum = 7
	maximum = 134
Slowest packet = 12338
Flit latency average = 25.6607
	minimum = 7
	maximum = 262
Slowest flit = 11975
Fragmentation average = 0
	minimum = 0
	maximum = 0
Injected packet rate average = 0.0965
	minimum = 0.066 (at node 0)
	maximum = 0.118 (at node 7)
Accepted packet rate average = 0.09725
	minimum = 0.082 (at node 4)
	maximum = 0.136 (at node 6)
Injected flit rate average = 0.0965
	minimum = 0.066 (at node 0)
	maximum = 0.118 (at node 7)
Accepted flit rate average= 0.09725
	minimum = 0.082 (at node 4)
	maximum = 0.136 (at node 6)
Injected packet length average = 1
Accepted packet length average = 1
Total in-flight flits = 42 (42 measured)
latency change    = 0.279516
throughput change = 0.00771208
Class 0:
Packet latency average = 48.8602
	minimum = 7
	maximum = 729
Network latency average = 25.0007
	minimum = 7
	maximum = 148
Slowest packet = 12338
Flit latency average = 25.8968
	minimum = 7
	maximum = 262
Slowest flit = 11975
Fragmentation average = 0
	minimum = 0
	maximum = 0
Injected packet rate average = 0.09625
	minimum = 0.074 (at node 12)
	maximum = 0.115 (at node 10)
Accepted packet rate average = 0.0969375
	minimum = 0.083 (at node 2)
	maximum = 0.12 (at node 6)
Injected flit rate average = 0.09625
	minimum = 0.074 (at node 12)
	maximum = 0.115 (at node 10)
Accepted flit rate average= 0.0969375
	minimum = 0.083 (at node 2)
	maximum = 0.12 (at node 6)
Injected packet length average = 1
Accepted packet length average = 1
Total in-flight flits = 36 (36 measured)
latency change    = 0.0662026
throughput change = 0.00322373
Class 0:
Packet latency average = 54.2664
	minimum = 7
	maximum = 745
Network latency average = 25.1987
	minimum = 7
	maximum = 148
Slowest packet = 12338
Flit latency average = 25.7926
	minimum = 7
	maximum = 262
Slowest flit = 11975
Fragmentation average = 0
	minimum = 0
	maximum = 0
Injected packet rate average = 0.0966667
	minimum = 0.0813333 (at node 12)
	maximum = 0.111333 (at node 10)
Accepted packet rate average = 0.0968333
	minimum = 0.088 (at node 3)
	maximum = 0.110667 (at node 13)
Injected flit rate average = 0.0966667
	minimum = 0.0813333 (at node 12)
	maximum = 0.111333 (at node 10)
Accepted flit rate average= 0.0968333
	minimum = 0.088 (at node 3)
	maximum = 0.110667 (at node 13)
Injected packet length average = 1
Accepted packet length average = 1
Total in-flight flits = 44 (44 measured)
latency change    = 0.0996232
throughput change = 0.00107573
Class 0:
Packet latency average = 56.3169
	minimum = 7
	maximum = 770
Network latency average = 25.2827
	minimum = 7
	maximum = 148
Slowest packet = 12338
Flit latency average = 25.733
	minimum = 7
	maximum = 262
Slowest flit = 11975
Fragmentation average = 0
	minimum = 0
	maximum = 0
Injected packet rate average = 0.0954062
	minimum = 0.0825 (at node 12)
	maximum = 0.111 (at node 10)
Accepted packet rate average = 0.0955
	minimum = 0.0875 (at node 14)
	maximum = 0.108 (at node 13)
Injected flit rate average = 0.0954062
	minimum = 0.0825 (at node 12)
	maximum = 0.111 (at node 10)
Accepted flit rate average= 0.0955
	minimum = 0.0875 (at node 14)
	maximum = 0.108 (at node 13)
Injected packet length average = 1
Accepted packet length average = 1
Total in-flight flits = 45 (45 measured)
latency change    = 0.036411
throughput change = 0.0139616
Class 0:
Packet latency average = 58.5353
	minimum = 7
	maximum = 862
Network latency average = 25.6943
	minimum = 7
	maximum = 217
Slowest packet = 12338
Flit latency average = 26.0462
	minimum = 7
	maximum = 262
Slowest flit = 11975
Fragmentation average = 0
	minimum = 0
	maximum = 0
Injected packet rate average = 0.0962
	minimum = 0.084 (at node 12)
	maximum = 0.1068 (at node 10)
Accepted packet rate average = 0.09635
	minimum = 0.0884 (at node 2)
	maximum = 0.1076 (at node 13)
Injected flit rate average = 0.0962
	minimum = 0.084 (at node 12)
	maximum = 0.1068 (at node 10)
Accepted flit rate average= 0.09635
	minimum = 0.0884 (at node 2)
	maximum = 0.1076 (at node 13)
Injected packet length average = 1
Accepted packet length average = 1
Total in-flight flits = 42 (42 measured)
latency change    = 0.0378988
throughput change = 0.008822
Class 0:
Packet latency average = 59.1465
	minimum = 7
	maximum = 1013
Network latency average = 25.8336
	minimum = 7
	maximum = 217
Slowest packet = 12338
Flit latency average = 26.1255
	minimum = 7
	maximum = 262
Slowest flit = 11975
Fragmentation average = 0
	minimum = 0
	maximum = 0
Injected packet rate average = 0.0961458
	minimum = 0.0803333 (at node 12)
	maximum = 0.109 (at node 8)
Accepted packet rate average = 0.0962708
	minimum = 0.0843333 (at node 4)
	maximum = 0.104333 (at node 12)
Injected flit rate average = 0.0961458
	minimum = 0.0803333 (at node 12)
	maximum = 0.109 (at node 8)
Accepted flit rate average= 0.0962708
	minimum = 0.0843333 (at node 4)
	maximum = 0.104333 (at node 12)
Injected packet length average = 1
Accepted packet length average = 1
Total in-flight flits = 42 (42 measured)
latency change    = 0.0103336
throughput change = 0.000822333
Draining all recorded packets ...
Class 0:
Remaining flits: 18428 18487 18492 18496 18497 18499 18502 18503 18507 18508 [...] (30 flits)
Measured flits: 18428 (1 flits)
Draining remaining packets ...
Time taken is 5585 cycles
Class 0:
Packet latency average = 26.0093
	minimum = 7
	maximum = 168
Network latency average = 24.1573
	minimum = 7
	maximum = 120
Slowest packet = 18838
Flit latency average = 24.1573
	minimum = 7
	maximum = 120
Slowest flit = 19008
Fragmentation average = 0
	minimum = 0
	maximum = 0
Injected packet rate average = 0.09825
	minimum = 0.082 (at node 10)
	maximum = 0.12 (at node 1)
Accepted packet rate average = 0.09375
	minimum = 0.07 (at node 0)
	maximum = 0.132 (at node 11)
Injected flit rate average = 0.09825
	minimum = 0.082 (at node 10)
	maximum = 0.12 (at node 1)
Accepted flit rate average= 0.09375
	minimum = 0.07 (at node 0)
	maximum = 0.132 (at node 11)
Injected packet length average = 1
Accepted packet length average = 1
Total in-flight flits = 37 (0 measured)
latency change    = 1
throughput change = 1
Class 0:
Packet latency average = 30.9616
	minimum = 7
	maximum = 348
Network latency average = 25.4424
	minimum = 7
	maximum = 157
Slowest packet = 18838
Flit latency average = 25.4424
	minimum = 7
	maximum = 157
Slowest flit = 19391
Fragmentation average = 0
	minimum = 0
	maximum = 0
Injected packet rate average = 0.10075
	minimum = 0.084 (at node 4)
	maximum = 0.112 (at node 7)
Accepted packet rate average = 0.097625
	minimum = 0.083 (at node 0)
	maximum = 0.118 (at node 4)
Injected flit rate average = 0.10075
	minimum = 0.084 (at node 4)
	maximum = 0.112 (at node 7)
Accepted flit rate average= 0.097625
	minimum = 0.083 (at node 0)
	maximum = 0.118 (at node 4)
Injected packet length average = 1
Accepted packet length average = 1
Total in-flight flits = 53 (0 measured)
latency change    = 0.159948
throughput change = 0.0396927
Class 0:
Packet latency average = 38.0259
	minimum = 7
	maximum = 390
Network latency average = 25.8571
	minimum = 7
	maximum = 148
Slowest packet = 20121
Flit latency average = 25.8571
	minimum = 7
	maximum = 148
Slowest flit = 19954
Fragmentation average = 0
	minimum = 0
	maximum = 0
Injected packet rate average = 0.100375
	minimum = 0.082 (at node 9)
	maximum = 0.128 (at node 4)
Accepted packet rate average = 0.1015
	minimum = 0.076 (at node 12)
	maximum = 0.126 (at node 14)
Injected flit rate average = 0.100375
	minimum = 0.082 (at node 9)
	maximum = 0.128 (at node 4)
Accepted flit rate average= 0.1015
	minimum = 0.076 (at node 12)
	maximum = 0.126 (at node 14)
Injected packet length average = 1
Accepted packet length average = 1
Total in-flight flits = 42 (0 measured)
latency change    = 0.185776
throughput change = 0.0381773
Warmed up ...Time used is 1500 cycles
Class 0:
Packet latency average = 40.4267
	minimum = 7
	maximum = 647
Network latency average = 25.56
	minimum = 7
	maximum = 161
Slowest packet = 20976
Flit latency average = 26.6389
	minimum = 7
	maximum = 161
Slowest flit = 21419
Fragmentation average = 0
	minimum = 0
	maximum = 0
Injected packet rate average = 0.09925
	minimum = 0.07 (at node 12)
	maximum = 0.124 (at node 2)
Accepted packet rate average = 0.099
	minimum = 0.072 (at node 0)
	maximum = 0.116 (at node 4)
Injected flit rate average = 0.09925
	minimum = 0.07 (at node 12)
	maximum = 0.124 (at node 2)
Accepted flit rate average= 0.099
	minimum = 0.072 (at node 0)
	maximum = 0.116 (at node 4)
Injected packet length average = 1
Accepted packet length average = 1
Total in-flight flits = 44 (44 measured)
latency change    = 0.0593867
throughput change = 0.0252525
Class 0:
Packet latency average = 53.1713
	minimum = 7
	maximum = 672
Network latency average = 27.1777
	minimum = 7
	maximum = 166
Slowest packet = 20976
Flit latency average = 27.6708
	minimum = 7
	maximum = 166
Slowest flit = 22015
Fragmentation average = 0
	minimum = 0
	maximum = 0
Injected packet rate average = 0.0991875
	minimum = 0.08 (at node 8)
	maximum = 0.12 (at node 13)
Accepted packet rate average = 0.0996875
	minimum = 0.082 (at node 0)
	maximum = 0.117 (at node 4)
Injected flit rate average = 0.0991875
	minimum = 0.08 (at node 8)
	maximum = 0.12 (at node 13)
Accepted flit rate average= 0.0996875
	minimum = 0.082 (at node 0)
	maximum = 0.117 (at node 4)
Injected packet length average = 1
Accepted packet length average = 1
Total in-flight flits = 34 (34 measured)
latency change    = 0.23969
throughput change = 0.00689655
Class 0:
Packet latency average = 52.3642
	minimum = 7
	maximum = 672
Network latency average = 26.5748
	minimum = 7
	maximum = 166
Slowest packet = 20976
Flit latency average = 26.9197
	minimum = 7
	maximum = 166
Slowest flit = 22015
Fragmentation average = 0
	minimum = 0
	maximum = 0
Injected packet rate average = 0.0987917
	minimum = 0.0813333 (at node 5)
	maximum = 0.116667 (at node 3)
Accepted packet rate average = 0.0980833
	minimum = 0.0846667 (at node 12)
	maximum = 0.116667 (at node 9)
Injected flit rate average = 0.0987917
	minimum = 0.0813333 (at node 5)
	maximum = 0.116667 (at node 3)
Accepted flit rate average= 0.0980833
	minimum = 0.0846667 (at node 12)
	maximum = 0.116667 (at node 9)
Injected packet length average = 1
Accepted packet length average = 1
Total in-flight flits = 61 (61 measured)
latency change    = 0.0154131
throughput change = 0.0163551
Class 0:
Packet latency average = 51.8797
	minimum = 7
	maximum = 672
Network latency average = 26.9815
	minimum = 7
	maximum = 190
Slowest packet = 20976
Flit latency average = 27.2357
	minimum = 7
	maximum = 190
Slowest flit = 23725
Fragmentation average = 0
	minimum = 0
	maximum = 0
Injected packet rate average = 0.0977813
	minimum = 0.0835 (at node 5)
	maximum = 0.112 (at node 3)
Accepted packet rate average = 0.0977187
	minimum = 0.088 (at node 15)
	maximum = 0.114 (at node 9)
Injected flit rate average = 0.0977813
	minimum = 0.0835 (at node 5)
	maximum = 0.112 (at node 3)
Accepted flit rate average= 0.0977187
	minimum = 0.088 (at node 15)
	maximum = 0.114 (at node 9)
Injected packet length average = 1
Accepted packet length average = 1
Total in-flight flits = 44 (44 measured)
latency change    = 0.00933787
throughput change = 0.00373095
Class 0:
Packet latency average = 52.4569
	minimum = 7
	maximum = 694
Network latency average = 26.9676
	minimum = 7
	maximum = 190
Slowest packet = 20976
Flit latency average = 27.1701
	minimum = 7
	maximum = 190
Slowest flit = 23725
Fragmentation average = 0
	minimum = 0
	maximum = 0
Injected packet rate average = 0.098175
	minimum = 0.0848 (at node 12)
	maximum = 0.1104 (at node 7)
Accepted packet rate average = 0.098175
	minimum = 0.0884 (at node 5)
	maximum = 0.1076 (at node 9)
Injected flit rate average = 0.098175
	minimum = 0.0848 (at node 12)
	maximum = 0.1104 (at node 7)
Accepted flit rate average= 0.098175
	minimum = 0.0884 (at node 5)
	maximum = 0.1076 (at node 9)
Injected packet length average = 1
Accepted packet length average = 1
Total in-flight flits = 42 (42 measured)
latency change    = 0.0110023
throughput change = 0.00464731
Draining all recorded packets ...
Draining remaining packets ...
Time taken is 4939 cycles
Class 0:
Packet latency average = 27.1489
	minimum = 7
	maximum = 201
Network latency average = 24.751
	minimum = 7
	maximum = 125
Slowest packet = 26540
Flit latency average = 24.751
	minimum = 7
	maximum = 125
Slowest flit = 26540
Fragmentation average = 0
	minimum = 0
	maximum = 0
Injected packet rate average = 0.10025
	minimum = 0.078 (at node 0)
	maximum = 0.12 (at node 2)
Accepted packet rate average = 0.094875
	minimum = 0.068 (at node 14)
	maximum = 0.12 (at node 11)
Injected flit rate average = 0.10025
	minimum = 0.078 (at node 0)
	maximum = 0.12 (at node 2)
Accepted flit rate average= 0.094875
	minimum = 0.068 (at node 14)
	maximum = 0.12 (at node 11)
Injected packet length average = 1
Accepted packet length average = 1
Total in-flight flits = 44 (0 measured)
latency change    = 1
throughput change = 1
Class 0:
Packet latency average = 30.9032
	minimum = 7
	maximum = 278
Network latency average = 24.8894
	minimum = 7
	maximum = 152
Slowest packet = 26540
Flit latency average = 24.8894
	minimum = 7
	maximum = 152
Slowest flit = 27334
Fragmentation average = 0
	minimum = 0
	maximum = 0
Injected packet rate average = 0.097625
	minimum = 0.079 (at node 0)
	maximum = 0.106 (at node 1)
Accepted packet rate average = 0.0949375
	minimum = 0.079 (at node 1)
	maximum = 0.109 (at node 5)
Injected flit rate average = 0.097625
	minimum = 0.079 (at node 0)
	maximum = 0.106 (at node 1)
Accepted flit rate average= 0.0949375
	minimum = 0.079 (at node 1)
	maximum = 0.109 (at node 5)
Injected packet length average = 1
Accepted packet length average = 1
Total in-flight flits = 44 (0 measured)
latency change    = 0.121487
throughput change = 0.000658328
Class 0:
Packet latency average = 32.3658
	minimum = 7
	maximum = 268
Network latency average = 25.3953
	minimum = 7
	maximum = 120
Slowest packet = 27675
Flit latency average = 25.3953
	minimum = 7
	maximum = 120
Slowest flit = 28402
Fragmentation average = 0
	minimum = 0
	maximum = 0
Injected packet rate average = 0.10175
	minimum = 0.072 (at node 11)
	maximum = 0.114 (at node 3)
Accepted packet rate average = 0.1015
	minimum = 0.088 (at node 0)
	maximum = 0.124 (at node 14)
Injected flit rate average = 0.10175
	minimum = 0.072 (at node 11)
	maximum = 0.114 (at node 3)
Accepted flit rate average= 0.1015
	minimum = 0.088 (at node 0)
	maximum = 0.124 (at node 14)
Injected packet length average = 1
Accepted packet length average = 1
Total in-flight flits = 46 (0 measured)
latency change    = 0.0451878
throughput change = 0.0646552
Warmed up ...Time used is 1500 cycles
Class 0:
Packet latency average = 34.9655
	minimum = 7
	maximum = 415
Network latency average = 25.9178
	minimum = 7
	maximum = 169
Slowest packet = 28656
Flit latency average = 26.675
	minimum = 7
	maximum = 169
Slowest flit = 28925
Fragmentation average = 0
	minimum = 0
	maximum = 0
Injected packet rate average = 0.099
	minimum = 0.074 (at node 12)
	maximum = 0.112 (at node 7)
Accepted packet rate average = 0.1
	minimum = 0.08 (at node 14)
	maximum = 0.126 (at node 10)
Injected flit rate average = 0.099
	minimum = 0.074 (at node 12)
	maximum = 0.112 (at node 7)
Accepted flit rate average= 0.1
	minimum = 0.08 (at node 14)
	maximum = 0.126 (at node 10)
Injected packet length average = 1
Accepted packet length average = 1
Total in-flight flits = 39 (39 measured)
latency change    = 0.0743519
throughput change = 0.015
Class 0:
Packet latency average = 37.5749
	minimum = 7
	maximum = 418
Network latency average = 25.8604
	minimum = 7
	maximum = 169
Slowest packet = 28656
Flit latency average = 26.2355
	minimum = 7
	maximum = 169
Slowest flit = 28925
Fragmentation average = 0
	minimum = 0
	maximum = 0
Injected packet rate average = 0.1015
	minimum = 0.085 (at node 12)
	maximum = 0.116 (at node 7)
Accepted packet rate average = 0.101375
	minimum = 0.086 (at node 1)
	maximum = 0.119 (at node 4)
Injected flit rate average = 0.1015
	minimum = 0.085 (at node 12)
	maximum = 0.116 (at node 7)
Accepted flit rate average= 0.101375
	minimum = 0.086 (at node 1)
	maximum = 0.119 (at node 4)
Injected packet length average = 1
Accepted packet length average = 1
Total in-flight flits = 49 (49 measured)
latency change    = 0.0694442
throughput change = 0.0135635
Class 0:
Packet latency average = 40.9682
	minimum = 7
	maximum = 581
Network latency average = 25.9509
	minimum = 7
	maximum = 170
Slowest packet = 28656
Flit latency average = 26.2019
	minimum = 7
	maximum = 170
Slowest flit = 30084
Fragmentation average = 0
	minimum = 0
	maximum = 0
Injected packet rate average = 0.0999583
	minimum = 0.084 (at node 12)
	maximum = 0.114667 (at node 10)
Accepted packet rate average = 0.100292
	minimum = 0.0853333 (at node 1)
	maximum = 0.112 (at node 4)
Injected flit rate average = 0.0999583
	minimum = 0.084 (at node 12)
	maximum = 0.114667 (at node 10)
Accepted flit rate average= 0.100292
	minimum = 0.0853333 (at node 1)
	maximum = 0.112 (at node 4)
Injected packet length average = 1
Accepted packet length average = 1
Total in-flight flits = 38 (38 measured)
latency change    = 0.0828291
throughput change = 0.0108018
Class 0:
Packet latency average = 42.5753
	minimum = 7
	maximum = 581
Network latency average = 25.9374
	minimum = 7
	maximum = 170
Slowest packet = 28656
Flit latency average = 26.1269
	minimum = 7
	maximum = 170
Slowest flit = 30084
Fragmentation average = 0
	minimum = 0
	maximum = 0
Injected packet rate average = 0.0995937
	minimum = 0.089 (at node 12)
	maximum = 0.1085 (at node 7)
Accepted packet rate average = 0.09975
	minimum = 0.0885 (at node 12)
	maximum = 0.1115 (at node 13)
Injected flit rate average = 0.0995937
	minimum = 0.089 (at node 12)
	maximum = 0.1085 (at node 7)
Accepted flit rate average= 0.09975
	minimum = 0.0885 (at node 12)
	maximum = 0.1115 (at node 13)
Injected packet length average = 1
Accepted packet length average = 1
Total in-flight flits = 41 (41 measured)
latency change    = 0.0377472
throughput change = 0.00543024
Class 0:
Packet latency average = 42.5706
	minimum = 7
	maximum = 675
Network latency average = 25.9182
	minimum = 7
	maximum = 170
Slowest packet = 28656
Flit latency average = 26.0703
	minimum = 7
	maximum = 170
Slowest flit = 30084
Fragmentation average = 0
	minimum = 0
	maximum = 0
Injected packet rate average = 0.099575
	minimum = 0.084 (at node 12)
	maximum = 0.1096 (at node 7)
Accepted packet rate average = 0.0996
	minimum = 0.09 (at node 7)
	maximum = 0.1084 (at node 4)
Injected flit rate average = 0.099575
	minimum = 0.084 (at node 12)
	maximum = 0.1096 (at node 7)
Accepted flit rate average= 0.0996
	minimum = 0.09 (at node 7)
	maximum = 0.1084 (at node 4)
Injected packet length average = 1
Accepted packet length average = 1
Total in-flight flits = 45 (45 measured)
latency change    = 0.000111334
throughput change = 0.00150602
Class 0:
Packet latency average = 44.7182
	minimum = 7
	maximum = 825
Network latency average = 25.952
	minimum = 7
	maximum = 177
Slowest packet = 28656
Flit latency average = 26.078
	minimum = 7
	maximum = 177
Slowest flit = 32894
Fragmentation average = 0
	minimum = 0
	maximum = 0
Injected packet rate average = 0.0998125
	minimum = 0.0816667 (at node 12)
	maximum = 0.107 (at node 3)
Accepted packet rate average = 0.0999375
	minimum = 0.0923333 (at node 7)
	maximum = 0.108667 (at node 14)
Injected flit rate average = 0.0998125
	minimum = 0.0816667 (at node 12)
	maximum = 0.107 (at node 3)
Accepted flit rate average= 0.0999375
	minimum = 0.0923333 (at node 7)
	maximum = 0.108667 (at node 14)
Injected packet length average = 1
Accepted packet length average = 1
Total in-flight flits = 40 (40 measured)
latency change    = 0.0480246
throughput change = 0.00337711
Draining all recorded packets ...
Class 0:
Remaining flits: 34824 34852 34934 34951 34952 34972 34975 34979 34980 34987 [...] (44 flits)
Measured flits: 34824 34852 34934 34951 34975 35009 (6 flits)
Draining remaining packets ...
Time taken is 5651 cycles
Class 0:
Packet latency average = 22.6355
	minimum = 7
	maximum = 97
Network latency average = 22.6128
	minimum = 7
	maximum = 97
Slowest packet = 35439
Flit latency average = 22.6128
	minimum = 7
	maximum = 97
Slowest flit = 35439
Fragmentation average = 0
	minimum = 0
	maximum = 0
Injected packet rate average = 0.097875
	minimum = 0.074 (at node 5)
	maximum = 0.12 (at node 11)
Accepted packet rate average = 0.093625
	minimum = 0.06 (at node 2)
	maximum = 0.118 (at node 14)
Injected flit rate average = 0.097875
	minimum = 0.074 (at node 5)
	maximum = 0.12 (at node 11)
Accepted flit rate average= 0.093625
	minimum = 0.06 (at node 2)
	maximum = 0.118 (at node 14)
Injected packet length average = 1
Accepted packet length average = 1
Total in-flight flits = 34 (0 measured)
latency change    = 1
throughput change = 1
Class 0:
Packet latency average = 25.7756
	minimum = 7
	maximum = 182
Network latency average = 24.3228
	minimum = 7
	maximum = 126
Slowest packet = 36059
Flit latency average = 24.3228
	minimum = 7
	maximum = 126
Slowest flit = 36059
Fragmentation average = 0
	minimum = 0
	maximum = 0
Injected packet rate average = 0.096875
	minimum = 0.079 (at node 6)
	maximum = 0.123 (at node 11)
Accepted packet rate average = 0.0946875
	minimum = 0.068 (at node 2)
	maximum = 0.112 (at node 7)
Injected flit rate average = 0.096875
	minimum = 0.079 (at node 6)
	maximum = 0.123 (at node 11)
Accepted flit rate average= 0.0946875
	minimum = 0.068 (at node 2)
	maximum = 0.112 (at node 7)
Injected packet length average = 1
Accepted packet length average = 1
Total in-flight flits = 36 (0 measured)
latency change    = 0.121823
throughput change = 0.0112211
Class 0:
Packet latency average = 30.2591
	minimum = 7
	maximum = 306
Network latency average = 26.5247
	minimum = 7
	maximum = 211
Slowest packet = 36835
Flit latency average = 26.5247
	minimum = 7
	maximum = 211
Slowest flit = 36835
Fragmentation average = 0
	minimum = 0
	maximum = 0
Injected packet rate average = 0.097125
	minimum = 0.066 (at node 12)
	maximum = 0.114 (at node 8)
Accepted packet rate average = 0.096
	minimum = 0.068 (at node 11)
	maximum = 0.12 (at node 2)
Injected flit rate average = 0.097125
	minimum = 0.066 (at node 12)
	maximum = 0.114 (at node 8)
Accepted flit rate average= 0.096
	minimum = 0.068 (at node 11)
	maximum = 0.12 (at node 2)
Injected packet length average = 1
Accepted packet length average = 1
Total in-flight flits = 46 (0 measured)
latency change    = 0.148171
throughput change = 0.0136719
Warmed up ...Time used is 1500 cycles
Class 0:
Packet latency average = 44.359
	minimum = 7
	maximum = 491
Network latency average = 25.2833
	minimum = 7
	maximum = 113
Slowest packet = 37550
Flit latency average = 27.0422
	minimum = 7
	maximum = 195
Slowest flit = 37282
Fragmentation average = 0
	minimum = 0
	maximum = 0
Injected packet rate average = 0.0935
	minimum = 0.058 (at node 5)
	maximum = 0.11 (at node 10)
Accepted packet rate average = 0.094875
	minimum = 0.082 (at node 0)
	maximum = 0.112 (at node 3)
Injected flit rate average = 0.0935
	minimum = 0.058 (at node 5)
	maximum = 0.11 (at node 10)
Accepted flit rate average= 0.094875
	minimum = 0.082 (at node 0)
	maximum = 0.112 (at node 3)
Injected packet length average = 1
Accepted packet length average = 1
Total in-flight flits = 34 (34 measured)
latency change    = 0.317859
throughput change = 0.0118577
Class 0:
Packet latency average = 45.563
	minimum = 7
	maximum = 619
Network latency average = 25.8937
	minimum = 7
	maximum = 205
Slowest packet = 37550
Flit latency average = 26.7309
	minimum = 7
	maximum = 205
Slowest flit = 38294
Fragmentation average = 0
	minimum = 0
	maximum = 0
Injected packet rate average = 0.096875
	minimum = 0.079 (at node 12)
	maximum = 0.112 (at node 1)
Accepted packet rate average = 0.0975625
	minimum = 0.087 (at node 13)
	maximum = 0.114 (at node 3)
Injected flit rate average = 0.096875
	minimum = 0.079 (at node 12)
	maximum = 0.112 (at node 1)
Accepted flit rate average= 0.0975625
	minimum = 0.087 (at node 13)
	maximum = 0.114 (at node 3)
Injected packet length average = 1
Accepted packet length average = 1
Total in-flight flits = 34 (34 measured)
latency change    = 0.0264247
throughput change = 0.0275464
Class 0:
Packet latency average = 51.8094
	minimum = 7
	maximum = 734
Network latency average = 25.5205
	minimum = 7
	maximum = 205
Slowest packet = 37550
Flit latency average = 26.0853
	minimum = 7
	maximum = 205
Slowest flit = 38294
Fragmentation average = 0
	minimum = 0
	maximum = 0
Injected packet rate average = 0.097625
	minimum = 0.086 (at node 12)
	maximum = 0.110667 (at node 1)
Accepted packet rate average = 0.0976667
	minimum = 0.088 (at node 2)
	maximum = 0.107333 (at node 3)
Injected flit rate average = 0.097625
	minimum = 0.086 (at node 12)
	maximum = 0.110667 (at node 1)
Accepted flit rate average= 0.0976667
	minimum = 0.088 (at node 2)
	maximum = 0.107333 (at node 3)
Injected packet length average = 1
Accepted packet length average = 1
Total in-flight flits = 44 (44 measured)
latency change    = 0.120564
throughput change = 0.00106655
Class 0:
Packet latency average = 56.2444
	minimum = 7
	maximum = 805
Network latency average = 25.403
	minimum = 7
	maximum = 205
Slowest packet = 37550
Flit latency average = 25.8287
	minimum = 7
	maximum = 205
Slowest flit = 38294
Fragmentation average = 0
	minimum = 0
	maximum = 0
Injected packet rate average = 0.0974688
	minimum = 0.0885 (at node 2)
	maximum = 0.107 (at node 1)
Accepted packet rate average = 0.0975938
	minimum = 0.0875 (at node 2)
	maximum = 0.106 (at node 1)
Injected flit rate average = 0.0974688
	minimum = 0.0885 (at node 2)
	maximum = 0.107 (at node 1)
Accepted flit rate average= 0.0975938
	minimum = 0.0875 (at node 2)
	maximum = 0.106 (at node 1)
Injected packet length average = 1
Accepted packet length average = 1
Total in-flight flits = 41 (41 measured)
latency change    = 0.0788522
throughput change = 0.000747145
Class 0:
Packet latency average = 57.1889
	minimum = 7
	maximum = 805
Network latency average = 25.235
	minimum = 7
	maximum = 205
Slowest packet = 37550
Flit latency average = 25.5773
	minimum = 7
	maximum = 205
Slowest flit = 38294
Fragmentation average = 0
	minimum = 0
	maximum = 0
Injected packet rate average = 0.097575
	minimum = 0.0908 (at node 2)
	maximum = 0.1044 (at node 1)
Accepted packet rate average = 0.09765
	minimum = 0.0888 (at node 2)
	maximum = 0.1036 (at node 5)
Injected flit rate average = 0.097575
	minimum = 0.0908 (at node 2)
	maximum = 0.1044 (at node 1)
Accepted flit rate average= 0.09765
	minimum = 0.0888 (at node 2)
	maximum = 0.1036 (at node 5)
Injected packet length average = 1
Accepted packet length average = 1
Total in-flight flits = 42 (42 measured)
latency change    = 0.0165149
throughput change = 0.000576037
Class 0:
Packet latency average = 56.9972
	minimum = 7
	maximum = 805
Network latency average = 25.3415
	minimum = 7
	maximum = 205
Slowest packet = 37550
Flit latency average = 25.625
	minimum = 7
	maximum = 205
Slowest flit = 38294
Fragmentation average = 0
	minimum = 0
	maximum = 0
Injected packet rate average = 0.0978958
	minimum = 0.088 (at node 10)
	maximum = 0.105667 (at node 14)
Accepted packet rate average = 0.0978958
	minimum = 0.0903333 (at node 14)
	maximum = 0.104333 (at node 8)
Injected flit rate average = 0.0978958
	minimum = 0.088 (at node 10)
	maximum = 0.105667 (at node 14)
Accepted flit rate average= 0.0978958
	minimum = 0.0903333 (at node 14)
	maximum = 0.104333 (at node 8)
Injected packet length average = 1
Accepted packet length average = 1
Total in-flight flits = 45 (45 measured)
latency change    = 0.00336252
throughput change = 0.00251117
Class 0:
Packet latency average = 58.837
	minimum = 7
	maximum = 805
Network latency average = 25.3407
	minimum = 7
	maximum = 205
Slowest packet = 37550
Flit latency average = 25.5843
	minimum = 7
	maximum = 205
Slowest flit = 38294
Fragmentation average = 0
	minimum = 0
	maximum = 0
Injected packet rate average = 0.0978571
	minimum = 0.0888571 (at node 10)
	maximum = 0.106286 (at node 13)
Accepted packet rate average = 0.0976786
	minimum = 0.0877143 (at node 14)
	maximum = 0.104286 (at node 5)
Injected flit rate average = 0.0978571
	minimum = 0.0888571 (at node 10)
	maximum = 0.106286 (at node 13)
Accepted flit rate average= 0.0976786
	minimum = 0.0877143 (at node 14)
	maximum = 0.104286 (at node 5)
Injected packet length average = 1
Accepted packet length average = 1
Total in-flight flits = 55 (55 measured)
latency change    = 0.0312697
throughput change = 0.00222425
Draining all recorded packets ...
Draining remaining packets ...
Time taken is 6057 cycles
Class 0:
Packet latency average = 24.0132
	minimum = 7
	maximum = 101
Network latency average = 23.9499
	minimum = 7
	maximum = 101
Slowest packet = 44504
Flit latency average = 23.9499
	minimum = 7
	maximum = 101
Slowest flit = 44504
Fragmentation average = 0
	minimum = 0
	maximum = 0
Injected packet rate average = 0.099875
	minimum = 0.084 (at node 8)
	maximum = 0.114 (at node 7)
Accepted packet rate average = 0.09475
	minimum = 0.076 (at node 10)
	maximum = 0.118 (at node 2)
Injected flit rate average = 0.099875
	minimum = 0.084 (at node 8)
	maximum = 0.114 (at node 7)
Accepted flit rate average= 0.09475
	minimum = 0.076 (at node 10)
	maximum = 0.118 (at node 2)
Injected packet length average = 1
Accepted packet length average = 1
Total in-flight flits = 41 (0 measured)
latency change    = 1
throughput change = 1
Class 0:
Packet latency average = 25.5645
	minimum = 7
	maximum = 184
Network latency average = 24.1646
	minimum = 7
	maximum = 109
Slowest packet = 45548
Flit latency average = 24.1646
	minimum = 7
	maximum = 109
Slowest flit = 45548
Fragmentation average = 0
	minimum = 0
	maximum = 0
Injected packet rate average = 0.098875
	minimum = 0.084 (at node 8)
	maximum = 0.114 (at node 1)
Accepted packet rate average = 0.0964375
	minimum = 0.072 (at node 10)
	maximum = 0.116 (at node 2)
Injected flit rate average = 0.098875
	minimum = 0.084 (at node 8)
	maximum = 0.114 (at node 1)
Accepted flit rate average= 0.0964375
	minimum = 0.072 (at node 10)
	maximum = 0.116 (at node 2)
Injected packet length average = 1
Accepted packet length average = 1
Total in-flight flits = 39 (0 measured)
latency change    = 0.0606815
throughput change = 0.0174984
Class 0:
Packet latency average = 23.6351
	minimum = 7
	maximum = 124
Network latency average = 23.4343
	minimum = 7
	maximum = 91
Slowest packet = 45960
Flit latency average = 23.4343
	minimum = 7
	maximum = 91
Slowest flit = 46020
Fragmentation average = 0
	minimum = 0
	maximum = 0
Injected packet rate average = 0.1
	minimum = 0.078 (at node 9)
	maximum = 0.128 (at node 11)
Accepted packet rate average = 0.099
	minimum = 0.068 (at node 15)
	maximum = 0.124 (at node 7)
Injected flit rate average = 0.1
	minimum = 0.078 (at node 9)
	maximum = 0.128 (at node 11)
Accepted flit rate average= 0.099
	minimum = 0.068 (at node 15)
	maximum = 0.124 (at node 7)
Injected packet length average = 1
Accepted packet length average = 1
Total in-flight flits = 48 (0 measured)
latency change    = 0.0816321
throughput change = 0.0258838
Warmed up ...Time used is 1500 cycles
Class 0:
Packet latency average = 29.5035
	minimum = 7
	maximum = 236
Network latency average = 23.9645
	minimum = 7
	maximum = 114
Slowest packet = 46905
Flit latency average = 24.8486
	minimum = 7
	maximum = 114
Slowest flit = 46918
Fragmentation average = 0
	minimum = 0
	maximum = 0
Injected packet rate average = 0.092625
	minimum = 0.078 (at node 3)
	maximum = 0.102 (at node 0)
Accepted packet rate average = 0.094125
	minimum = 0.07 (at node 4)
	maximum = 0.122 (at node 8)
Injected flit rate average = 0.092625
	minimum = 0.078 (at node 3)
	maximum = 0.102 (at node 0)
Accepted flit rate average= 0.094125
	minimum = 0.07 (at node 4)
	maximum = 0.122 (at node 8)
Injected packet length average = 1
Accepted packet length average = 1
Total in-flight flits = 36 (36 measured)
latency change    = 0.198906
throughput change = 0.0517928
Class 0:
Packet latency average = 30.6508
	minimum = 7
	maximum = 292
Network latency average = 24.2748
	minimum = 7
	maximum = 142
Slowest packet = 46905
Flit latency average = 24.6974
	minimum = 7
	maximum = 142
Slowest flit = 48174
Fragmentation average = 0
	minimum = 0
	maximum = 0
Injected packet rate average = 0.095625
	minimum = 0.078 (at node 5)
	maximum = 0.104 (at node 4)
Accepted packet rate average = 0.09625
	minimum = 0.082 (at node 0)
	maximum = 0.123 (at node 2)
Injected flit rate average = 0.095625
	minimum = 0.078 (at node 5)
	maximum = 0.104 (at node 4)
Accepted flit rate average= 0.09625
	minimum = 0.082 (at node 0)
	maximum = 0.123 (at node 2)
Injected packet length average = 1
Accepted packet length average = 1
Total in-flight flits = 38 (38 measured)
latency change    = 0.03743
throughput change = 0.0220779
Class 0:
Packet latency average = 33.4408
	minimum = 7
	maximum = 453
Network latency average = 25.8679
	minimum = 7
	maximum = 200
Slowest packet = 46905
Flit latency average = 26.1139
	minimum = 7
	maximum = 200
Slowest flit = 48561
Fragmentation average = 0
	minimum = 0
	maximum = 0
Injected packet rate average = 0.0974167
	minimum = 0.078 (at node 12)
	maximum = 0.115333 (at node 9)
Accepted packet rate average = 0.0972917
	minimum = 0.0866667 (at node 5)
	maximum = 0.11 (at node 2)
Injected flit rate average = 0.0974167
	minimum = 0.078 (at node 12)
	maximum = 0.115333 (at node 9)
Accepted flit rate average= 0.0972917
	minimum = 0.0866667 (at node 5)
	maximum = 0.11 (at node 2)
Injected packet length average = 1
Accepted packet length average = 1
Total in-flight flits = 50 (50 measured)
latency change    = 0.0834296
throughput change = 0.0107066
Class 0:
Packet latency average = 35.6697
	minimum = 7
	maximum = 620
Network latency average = 26.2315
	minimum = 7
	maximum = 200
Slowest packet = 46905
Flit latency average = 26.4108
	minimum = 7
	maximum = 200
Slowest flit = 48561
Fragmentation average = 0
	minimum = 0
	maximum = 0
Injected packet rate average = 0.0967812
	minimum = 0.0725 (at node 12)
	maximum = 0.116 (at node 9)
Accepted packet rate average = 0.0970625
	minimum = 0.086 (at node 5)
	maximum = 0.106 (at node 6)
Injected flit rate average = 0.0967812
	minimum = 0.0725 (at node 12)
	maximum = 0.116 (at node 9)
Accepted flit rate average= 0.0970625
	minimum = 0.086 (at node 5)
	maximum = 0.106 (at node 6)
Injected packet length average = 1
Accepted packet length average = 1
Total in-flight flits = 39 (39 measured)
latency change    = 0.062489
throughput change = 0.00236102
Class 0:
Packet latency average = 41.1165
	minimum = 7
	maximum = 823
Network latency average = 26.5271
	minimum = 7
	maximum = 257
Slowest packet = 46905
Flit latency average = 26.665
	minimum = 7
	maximum = 257
Slowest flit = 49683
Fragmentation average = 0
	minimum = 0
	maximum = 0
Injected packet rate average = 0.09805
	minimum = 0.0748 (at node 12)
	maximum = 0.1144 (at node 9)
Accepted packet rate average = 0.098425
	minimum = 0.09 (at node 0)
	maximum = 0.1028 (at node 10)
Injected flit rate average = 0.09805
	minimum = 0.0748 (at node 12)
	maximum = 0.1144 (at node 9)
Accepted flit rate average= 0.098425
	minimum = 0.09 (at node 0)
	maximum = 0.1028 (at node 10)
Injected packet length average = 1
Accepted packet length average = 1
Total in-flight flits = 33 (33 measured)
latency change    = 0.132472
throughput change = 0.013843
Class 0:
Packet latency average = 44.9584
	minimum = 7
	maximum = 898
Network latency average = 26.235
	minimum = 7
	maximum = 257
Slowest packet = 46905
Flit latency average = 26.3537
	minimum = 7
	maximum = 257
Slowest flit = 49683
Fragmentation average = 0
	minimum = 0
	maximum = 0
Injected packet rate average = 0.0975
	minimum = 0.0763333 (at node 12)
	maximum = 0.111 (at node 9)
Accepted packet rate average = 0.0977083
	minimum = 0.0893333 (at node 11)
	maximum = 0.102667 (at node 1)
Injected flit rate average = 0.0975
	minimum = 0.0763333 (at node 12)
	maximum = 0.111 (at node 9)
Accepted flit rate average= 0.0977083
	minimum = 0.0893333 (at node 11)
	maximum = 0.102667 (at node 1)
Injected packet length average = 1
Accepted packet length average = 1
Total in-flight flits = 38 (38 measured)
latency change    = 0.0854554
throughput change = 0.00733475
Class 0:
Packet latency average = 48.5698
	minimum = 7
	maximum = 993
Network latency average = 26.1924
	minimum = 7
	maximum = 257
Slowest packet = 46905
Flit latency average = 26.2943
	minimum = 7
	maximum = 257
Slowest flit = 49683
Fragmentation average = 0
	minimum = 0
	maximum = 0
Injected packet rate average = 0.0976786
	minimum = 0.0768571 (at node 12)
	maximum = 0.111429 (at node 9)
Accepted packet rate average = 0.0978571
	minimum = 0.0922857 (at node 0)
	maximum = 0.104571 (at node 10)
Injected flit rate average = 0.0976786
	minimum = 0.0768571 (at node 12)
	maximum = 0.111429 (at node 9)
Accepted flit rate average= 0.0978571
	minimum = 0.0922857 (at node 0)
	maximum = 0.104571 (at node 10)
Injected packet length average = 1
Accepted packet length average = 1
Total in-flight flits = 38 (38 measured)
latency change    = 0.0743538
throughput change = 0.00152068
Draining all recorded packets ...
Class 0:
Remaining flits: 53725 53736 53859 53873 53883 53887 53889 53903 53908 53909 [...] (43 flits)
Measured flits: 53725 53736 53859 53887 53903 53935 (6 flits)
Draining remaining packets ...
Time taken is 6170 cycles
Class 0:
Packet latency average = 23.5057
	minimum = 7
	maximum = 201
Network latency average = 23.4687
	minimum = 7
	maximum = 198
Slowest packet = 54579
Flit latency average = 23.4687
	minimum = 7
	maximum = 198
Slowest flit = 54579
Fragmentation average = 0
	minimum = 0
	maximum = 0
Injected packet rate average = 0.10375
	minimum = 0.064 (at node 12)
	maximum = 0.122 (at node 10)
Accepted packet rate average = 0.097875
	minimum = 0.078 (at node 0)
	maximum = 0.118 (at node 1)
Injected flit rate average = 0.10375
	minimum = 0.064 (at node 12)
	maximum = 0.122 (at node 10)
Accepted flit rate average= 0.097875
	minimum = 0.078 (at node 0)
	maximum = 0.118 (at node 1)
Injected packet length average = 1
Accepted packet length average = 1
Total in-flight flits = 48 (0 measured)
latency change    = 1
throughput change = 1
Class 0:
Packet latency average = 28.8544
	minimum = 7
	maximum = 345
Network latency average = 25.3359
	minimum = 7
	maximum = 201
Slowest packet = 54579
Flit latency average = 25.3359
	minimum = 7
	maximum = 201
Slowest flit = 55329
Fragmentation average = 0
	minimum = 0
	maximum = 0
Injected packet rate average = 0.102125
	minimum = 0.065 (at node 12)
	maximum = 0.126 (at node 10)
Accepted packet rate average = 0.0991875
	minimum = 0.078 (at node 0)
	maximum = 0.108 (at node 14)
Injected flit rate average = 0.102125
	minimum = 0.065 (at node 12)
	maximum = 0.126 (at node 10)
Accepted flit rate average= 0.0991875
	minimum = 0.078 (at node 0)
	maximum = 0.108 (at node 14)
Injected packet length average = 1
Accepted packet length average = 1
Total in-flight flits = 48 (0 measured)
latency change    = 0.185368
throughput change = 0.0132325
Class 0:
Packet latency average = 48.2077
	minimum = 7
	maximum = 557
Network latency average = 26.2617
	minimum = 7
	maximum = 206
Slowest packet = 55492
Flit latency average = 26.2617
	minimum = 7
	maximum = 206
Slowest flit = 55523
Fragmentation average = 0
	minimum = 0
	maximum = 0
Injected packet rate average = 0.1025
	minimum = 0.066 (at node 14)
	maximum = 0.134 (at node 1)
Accepted packet rate average = 0.104125
	minimum = 0.086 (at node 2)
	maximum = 0.126 (at node 1)
Injected flit rate average = 0.1025
	minimum = 0.066 (at node 14)
	maximum = 0.134 (at node 1)
Accepted flit rate average= 0.104125
	minimum = 0.086 (at node 2)
	maximum = 0.126 (at node 1)
Injected packet length average = 1
Accepted packet length average = 1
Total in-flight flits = 35 (0 measured)
latency change    = 0.401456
throughput change = 0.047419
Warmed up ...Time used is 1500 cycles
Class 0:
Packet latency average = 47.8855
	minimum = 7
	maximum = 583
Network latency average = 25.1379
	minimum = 7
	maximum = 156
Slowest packet = 56580
Flit latency average = 25.4013
	minimum = 7
	maximum = 156
Slowest flit = 56848
Fragmentation average = 0
	minimum = 0
	maximum = 0
Injected packet rate average = 0.09575
	minimum = 0.068 (at node 0)
	maximum = 0.122 (at node 2)
Accepted packet rate average = 0.095
	minimum = 0.072 (at node 13)
	maximum = 0.118 (at node 4)
Injected flit rate average = 0.09575
	minimum = 0.068 (at node 0)
	maximum = 0.122 (at node 2)
Accepted flit rate average= 0.095
	minimum = 0.072 (at node 13)
	maximum = 0.118 (at node 4)
Injected packet length average = 1
Accepted packet length average = 1
Total in-flight flits = 43 (43 measured)
latency change    = 0.00672783
throughput change = 0.0960526
Class 0:
Packet latency average = 50.0505
	minimum = 7
	maximum = 585
Network latency average = 26.0761
	minimum = 7
	maximum = 156
Slowest packet = 56580
Flit latency average = 26.1833
	minimum = 7
	maximum = 156
Slowest flit = 56848
Fragmentation average = 0
	minimum = 0
	maximum = 0
Injected packet rate average = 0.09725
	minimum = 0.077 (at node 0)
	maximum = 0.11 (at node 11)
Accepted packet rate average = 0.0975
	minimum = 0.086 (at node 10)
	maximum = 0.112 (at node 3)
Injected flit rate average = 0.09725
	minimum = 0.077 (at node 0)
	maximum = 0.11 (at node 11)
Accepted flit rate average= 0.0975
	minimum = 0.086 (at node 10)
	maximum = 0.112 (at node 3)
Injected packet length average = 1
Accepted packet length average = 1
Total in-flight flits = 31 (31 measured)
latency change    = 0.0432558
throughput change = 0.025641
Class 0:
Packet latency average = 49.2066
	minimum = 7
	maximum = 585
Network latency average = 25.7594
	minimum = 7
	maximum = 156
Slowest packet = 56580
Flit latency average = 25.8352
	minimum = 7
	maximum = 156
Slowest flit = 56848
Fragmentation average = 0
	minimum = 0
	maximum = 0
Injected packet rate average = 0.098625
	minimum = 0.082 (at node 0)
	maximum = 0.112 (at node 7)
Accepted packet rate average = 0.0980833
	minimum = 0.086 (at node 14)
	maximum = 0.112667 (at node 0)
Injected flit rate average = 0.098625
	minimum = 0.082 (at node 0)
	maximum = 0.112 (at node 7)
Accepted flit rate average= 0.0980833
	minimum = 0.086 (at node 14)
	maximum = 0.112667 (at node 0)
Injected packet length average = 1
Accepted packet length average = 1
Total in-flight flits = 48 (48 measured)
latency change    = 0.0171509
throughput change = 0.00594732
Class 0:
Packet latency average = 49.5587
	minimum = 7
	maximum = 684
Network latency average = 25.6626
	minimum = 7
	maximum = 164
Slowest packet = 56580
Flit latency average = 25.7203
	minimum = 7
	maximum = 164
Slowest flit = 59109
Fragmentation average = 0
	minimum = 0
	maximum = 0
Injected packet rate average = 0.0986563
	minimum = 0.0835 (at node 12)
	maximum = 0.112 (at node 9)
Accepted packet rate average = 0.0985313
	minimum = 0.088 (at node 14)
	maximum = 0.1095 (at node 0)
Injected flit rate average = 0.0986563
	minimum = 0.0835 (at node 12)
	maximum = 0.112 (at node 9)
Accepted flit rate average= 0.0985313
	minimum = 0.088 (at node 14)
	maximum = 0.1095 (at node 0)
Injected packet length average = 1
Accepted packet length average = 1
Total in-flight flits = 39 (39 measured)
latency change    = 0.00710545
throughput change = 0.00454594
Draining all recorded packets ...
Draining remaining packets ...
Time taken is 4340 cycles
Class 0:
Packet latency average = 24.747
	minimum = 7
	maximum = 165
Network latency average = 23.7763
	minimum = 7
	maximum = 131
Slowest packet = 61392
Flit latency average = 23.7763
	minimum = 7
	maximum = 131
Slowest flit = 61392
Fragmentation average = 0
	minimum = 0
	maximum = 0
Injected packet rate average = 0.0995
	minimum = 0.08 (at node 12)
	maximum = 0.114 (at node 13)
Accepted packet rate average = 0.093875
	minimum = 0.072 (at node 0)
	maximum = 0.112 (at node 9)
Injected flit rate average = 0.0995
	minimum = 0.08 (at node 12)
	maximum = 0.114 (at node 13)
Accepted flit rate average= 0.093875
	minimum = 0.072 (at node 0)
	maximum = 0.112 (at node 9)
Injected packet length average = 1
Accepted packet length average = 1
Total in-flight flits = 46 (0 measured)
latency change    = 1
throughput change = 1
Class 0:
Packet latency average = 29.8467
	minimum = 7
	maximum = 324
Network latency average = 25.113
	minimum = 7
	maximum = 131
Slowest packet = 61392
Flit latency average = 25.113
	minimum = 7
	maximum = 131
Slowest flit = 61392
Fragmentation average = 0
	minimum = 0
	maximum = 0
Injected packet rate average = 0.09725
	minimum = 0.085 (at node 8)
	maximum = 0.104 (at node 1)
Accepted packet rate average = 0.0945625
	minimum = 0.078 (at node 4)
	maximum = 0.111 (at node 9)
Injected flit rate average = 0.09725
	minimum = 0.085 (at node 8)
	maximum = 0.104 (at node 1)
Accepted flit rate average= 0.0945625
	minimum = 0.078 (at node 4)
	maximum = 0.111 (at node 9)
Injected packet length average = 1
Accepted packet length average = 1
Total in-flight flits = 45 (0 measured)
latency change    = 0.170862
throughput change = 0.00727032
Class 0:
Packet latency average = 38.9361
	minimum = 7
	maximum = 495
Network latency average = 27.4554
	minimum = 7
	maximum = 161
Slowest packet = 62446
Flit latency average = 27.4554
	minimum = 7
	maximum = 161
Slowest flit = 62914
Fragmentation average = 0
	minimum = 0
	maximum = 0
Injected packet rate average = 0.095125
	minimum = 0.054 (at node 12)
	maximum = 0.124 (at node 9)
Accepted packet rate average = 0.093875
	minimum = 0.076 (at node 4)
	maximum = 0.124 (at node 7)
Injected flit rate average = 0.095125
	minimum = 0.054 (at node 12)
	maximum = 0.124 (at node 9)
Accepted flit rate average= 0.093875
	minimum = 0.076 (at node 4)
	maximum = 0.124 (at node 7)
Injected packet length average = 1
Accepted packet length average = 1
Total in-flight flits = 55 (0 measured)
latency change    = 0.233445
throughput change = 0.00732357
Warmed up ...Time used is 1500 cycles
Class 0:
Packet latency average = 42.1874
	minimum = 7
	maximum = 760
Network latency average = 26.7751
	minimum = 7
	maximum = 150
Slowest packet = 63289
Flit latency average = 29.1796
	minimum = 7
	maximum = 295
Slowest flit = 62985
Fragmentation average = 0
	minimum = 0
	maximum = 0
Injected packet rate average = 0.09925
	minimum = 0.058 (at node 12)
	maximum = 0.13 (at node 11)
Accepted packet rate average = 0.10025
	minimum = 0.078 (at node 5)
	maximum = 0.122 (at node 10)
Injected flit rate average = 0.09925
	minimum = 0.058 (at node 12)
	maximum = 0.13 (at node 11)
Accepted flit rate average= 0.10025
	minimum = 0.078 (at node 5)
	maximum = 0.122 (at node 10)
Injected packet length average = 1
Accepted packet length average = 1
Total in-flight flits = 46 (46 measured)
latency change    = 0.0770687
throughput change = 0.063591
Class 0:
Packet latency average = 47.3796
	minimum = 7
	maximum = 998
Network latency average = 27.1827
	minimum = 7
	maximum = 224
Slowest packet = 63289
Flit latency average = 28.3709
	minimum = 7
	maximum = 295
Slowest flit = 62985
Fragmentation average = 0
	minimum = 0
	maximum = 0
Injected packet rate average = 0.099375
	minimum = 0.055 (at node 12)
	maximum = 0.128 (at node 1)
Accepted packet rate average = 0.10025
	minimum = 0.082 (at node 0)
	maximum = 0.116 (at node 15)
Injected flit rate average = 0.099375
	minimum = 0.055 (at node 12)
	maximum = 0.128 (at node 1)
Accepted flit rate average= 0.10025
	minimum = 0.082 (at node 0)
	maximum = 0.116 (at node 15)
Injected packet length average = 1
Accepted packet length average = 1
Total in-flight flits = 40 (40 measured)
latency change    = 0.109587
throughput change = 0
Class 0:
Packet latency average = 53.4637
	minimum = 7
	maximum = 1055
Network latency average = 26.7215
	minimum = 7
	maximum = 224
Slowest packet = 63289
Flit latency average = 27.5179
	minimum = 7
	maximum = 295
Slowest flit = 62985
Fragmentation average = 0
	minimum = 0
	maximum = 0
Injected packet rate average = 0.100583
	minimum = 0.0606667 (at node 12)
	maximum = 0.120667 (at node 1)
Accepted packet rate average = 0.101042
	minimum = 0.0886667 (at node 0)
	maximum = 0.112667 (at node 15)
Injected flit rate average = 0.100583
	minimum = 0.0606667 (at node 12)
	maximum = 0.120667 (at node 1)
Accepted flit rate average= 0.101042
	minimum = 0.0886667 (at node 0)
	maximum = 0.112667 (at node 15)
Injected packet length average = 1
Accepted packet length average = 1
Total in-flight flits = 42 (42 measured)
latency change    = 0.113799
throughput change = 0.00783505
Class 0:
Packet latency average = 62.8707
	minimum = 7
	maximum = 1203
Network latency average = 26.4943
	minimum = 7
	maximum = 224
Slowest packet = 63289
Flit latency average = 27.0967
	minimum = 7
	maximum = 295
Slowest flit = 62985
Fragmentation average = 0
	minimum = 0
	maximum = 0
Injected packet rate average = 0.1005
	minimum = 0.0705 (at node 12)
	maximum = 0.115 (at node 14)
Accepted packet rate average = 0.100844
	minimum = 0.0925 (at node 0)
	maximum = 0.1085 (at node 12)
Injected flit rate average = 0.1005
	minimum = 0.0705 (at node 12)
	maximum = 0.115 (at node 14)
Accepted flit rate average= 0.100844
	minimum = 0.0925 (at node 0)
	maximum = 0.1085 (at node 12)
Injected packet length average = 1
Accepted packet length average = 1
Total in-flight flits = 43 (43 measured)
latency change    = 0.149625
throughput change = 0.00196261
Class 0:
Packet latency average = 67.2231
	minimum = 7
	maximum = 1313
Network latency average = 26.3609
	minimum = 7
	maximum = 224
Slowest packet = 63289
Flit latency average = 26.8482
	minimum = 7
	maximum = 295
Slowest flit = 62985
Fragmentation average = 0
	minimum = 0
	maximum = 0
Injected packet rate average = 0.099675
	minimum = 0.0728 (at node 12)
	maximum = 0.1092 (at node 1)
Accepted packet rate average = 0.1001
	minimum = 0.0932 (at node 4)
	maximum = 0.1116 (at node 12)
Injected flit rate average = 0.099675
	minimum = 0.0728 (at node 12)
	maximum = 0.1092 (at node 1)
Accepted flit rate average= 0.1001
	minimum = 0.0932 (at node 4)
	maximum = 0.1116 (at node 12)
Injected packet length average = 1
Accepted packet length average = 1
Total in-flight flits = 37 (37 measured)
latency change    = 0.0647449
throughput change = 0.00743007
Class 0:
Packet latency average = 75.8436
	minimum = 7
	maximum = 1345
Network latency average = 26.0222
	minimum = 7
	maximum = 224
Slowest packet = 63289
Flit latency average = 26.4338
	minimum = 7
	maximum = 295
Slowest flit = 62985
Fragmentation average = 0
	minimum = 0
	maximum = 0
Injected packet rate average = 0.0996042
	minimum = 0.08 (at node 12)
	maximum = 0.11 (at node 11)
Accepted packet rate average = 0.0997083
	minimum = 0.09 (at node 10)
	maximum = 0.111 (at node 12)
Injected flit rate average = 0.0996042
	minimum = 0.08 (at node 12)
	maximum = 0.11 (at node 11)
Accepted flit rate average= 0.0997083
	minimum = 0.09 (at node 10)
	maximum = 0.111 (at node 12)
Injected packet length average = 1
Accepted packet length average = 1
Total in-flight flits = 49 (49 measured)
latency change    = 0.113661
throughput change = 0.00392812
Class 0:
Packet latency average = 77.1676
	minimum = 7
	maximum = 1386
Network latency average = 26.0174
	minimum = 7
	maximum = 224
Slowest packet = 63289
Flit latency average = 26.37
	minimum = 7
	maximum = 295
Slowest flit = 62985
Fragmentation average = 0
	minimum = 0
	maximum = 0
Injected packet rate average = 0.09975
	minimum = 0.08 (at node 12)
	maximum = 0.110286 (at node 1)
Accepted packet rate average = 0.0997679
	minimum = 0.0894286 (at node 10)
	maximum = 0.11 (at node 2)
Injected flit rate average = 0.09975
	minimum = 0.08 (at node 12)
	maximum = 0.110286 (at node 1)
Accepted flit rate average= 0.0997679
	minimum = 0.0894286 (at node 10)
	maximum = 0.11 (at node 2)
Injected packet length average = 1
Accepted packet length average = 1
Total in-flight flits = 54 (54 measured)
latency change    = 0.0171573
throughput change = 0.000596623
Draining all recorded packets ...
Class 0:
Remaining flits: 70193 70277 70300 70315 70322 70330 70336 70375 70391 70397 [...] (49 flits)
Measured flits: 70300 70322 70375 70402 70411 70415 (6 flits)
Draining remaining packets ...
Time taken is 6200 cycles
Class 0:
Packet latency average = 29.1364
	minimum = 7
	maximum = 226
Network latency average = 26.7179
	minimum = 7
	maximum = 185
Slowest packet = 70753
Flit latency average = 26.7179
	minimum = 7
	maximum = 185
Slowest flit = 70753
Fragmentation average = 0
	minimum = 0
	maximum = 0
Injected packet rate average = 0.101
	minimum = 0.066 (at node 12)
	maximum = 0.124 (at node 5)
Accepted packet rate average = 0.094375
	minimum = 0.084 (at node 0)
	maximum = 0.11 (at node 3)
Injected flit rate average = 0.101
	minimum = 0.066 (at node 12)
	maximum = 0.124 (at node 5)
Accepted flit rate average= 0.094375
	minimum = 0.084 (at node 0)
	maximum = 0.11 (at node 3)
Injected packet length average = 1
Accepted packet length average = 1
Total in-flight flits = 55 (0 measured)
latency change    = 1
throughput change = 1
Class 0:
Packet latency average = 32.5478
	minimum = 7
	maximum = 313
Network latency average = 26.6769
	minimum = 7
	maximum = 185
Slowest packet = 70753
Flit latency average = 26.6769
	minimum = 7
	maximum = 185
Slowest flit = 70753
Fragmentation average = 0
	minimum = 0
	maximum = 0
Injected packet rate average = 0.1005
	minimum = 0.08 (at node 12)
	maximum = 0.113 (at node 5)
Accepted packet rate average = 0.0973125
	minimum = 0.082 (at node 2)
	maximum = 0.112 (at node 3)
Injected flit rate average = 0.1005
	minimum = 0.08 (at node 12)
	maximum = 0.113 (at node 5)
Accepted flit rate average= 0.0973125
	minimum = 0.082 (at node 2)
	maximum = 0.112 (at node 3)
Injected packet length average = 1
Accepted packet length average = 1
Total in-flight flits = 52 (0 measured)
latency change    = 0.104813
throughput change = 0.0301863
Class 0:
Packet latency average = 30.7015
	minimum = 7
	maximum = 290
Network latency average = 26.5762
	minimum = 7
	maximum = 220
Slowest packet = 72135
Flit latency average = 26.5762
	minimum = 7
	maximum = 220
Slowest flit = 72593
Fragmentation average = 0
	minimum = 0
	maximum = 0
Injected packet rate average = 0.10125
	minimum = 0.08 (at node 12)
	maximum = 0.118 (at node 15)
Accepted packet rate average = 0.10175
	minimum = 0.082 (at node 7)
	maximum = 0.122 (at node 0)
Injected flit rate average = 0.10125
	minimum = 0.08 (at node 12)
	maximum = 0.118 (at node 15)
Accepted flit rate average= 0.10175
	minimum = 0.082 (at node 7)
	maximum = 0.122 (at node 0)
Injected packet length average = 1
Accepted packet length average = 1
Total in-flight flits = 47 (0 measured)
latency change    = 0.0601396
throughput change = 0.0436118
Warmed up ...Time used is 1500 cycles
Class 0:
Packet latency average = 35.4753
	minimum = 7
	maximum = 338
Network latency average = 25.5833
	minimum = 7
	maximum = 188
Slowest packet = 73070
Flit latency average = 26.4859
	minimum = 7
	maximum = 188
Slowest flit = 73443
Fragmentation average = 0
	minimum = 0
	maximum = 0
Injected packet rate average = 0.102625
	minimum = 0.088 (at node 15)
	maximum = 0.12 (at node 0)
Accepted packet rate average = 0.101875
	minimum = 0.09 (at node 6)
	maximum = 0.126 (at node 5)
Injected flit rate average = 0.102625
	minimum = 0.088 (at node 15)
	maximum = 0.12 (at node 0)
Accepted flit rate average= 0.101875
	minimum = 0.09 (at node 6)
	maximum = 0.126 (at node 5)
Injected packet length average = 1
Accepted packet length average = 1
Total in-flight flits = 56 (56 measured)
latency change    = 0.134567
throughput change = 0.00122699
Class 0:
Packet latency average = 42.4344
	minimum = 7
	maximum = 425
Network latency average = 27.8363
	minimum = 7
	maximum = 313
Slowest packet = 73070
Flit latency average = 28.2257
	minimum = 7
	maximum = 313
Slowest flit = 73829
Fragmentation average = 0
	minimum = 0
	maximum = 0
Injected packet rate average = 0.100562
	minimum = 0.087 (at node 12)
	maximum = 0.116 (at node 0)
Accepted packet rate average = 0.101062
	minimum = 0.086 (at node 10)
	maximum = 0.115 (at node 5)
Injected flit rate average = 0.100562
	minimum = 0.087 (at node 12)
	maximum = 0.116 (at node 0)
Accepted flit rate average= 0.101062
	minimum = 0.086 (at node 10)
	maximum = 0.115 (at node 5)
Injected packet length average = 1
Accepted packet length average = 1
Total in-flight flits = 40 (40 measured)
latency change    = 0.163997
throughput change = 0.00803958
Class 0:
Packet latency average = 40.9936
	minimum = 7
	maximum = 425
Network latency average = 27.631
	minimum = 7
	maximum = 313
Slowest packet = 73070
Flit latency average = 27.8984
	minimum = 7
	maximum = 313
Slowest flit = 73829
Fragmentation average = 0
	minimum = 0
	maximum = 0
Injected packet rate average = 0.0994167
	minimum = 0.082 (at node 12)
	maximum = 0.11 (at node 5)
Accepted packet rate average = 0.099625
	minimum = 0.0853333 (at node 6)
	maximum = 0.11 (at node 7)
Injected flit rate average = 0.0994167
	minimum = 0.082 (at node 12)
	maximum = 0.11 (at node 5)
Accepted flit rate average= 0.099625
	minimum = 0.0853333 (at node 6)
	maximum = 0.11 (at node 7)
Injected packet length average = 1
Accepted packet length average = 1
Total in-flight flits = 43 (43 measured)
latency change    = 0.0351468
throughput change = 0.0144291
Class 0:
Packet latency average = 42.623
	minimum = 7
	maximum = 524
Network latency average = 27.3227
	minimum = 7
	maximum = 313
Slowest packet = 73070
Flit latency average = 27.5249
	minimum = 7
	maximum = 313
Slowest flit = 73829
Fragmentation average = 0
	minimum = 0
	maximum = 0
Injected packet rate average = 0.100969
	minimum = 0.085 (at node 12)
	maximum = 0.111 (at node 3)
Accepted packet rate average = 0.101031
	minimum = 0.089 (at node 12)
	maximum = 0.112 (at node 7)
Injected flit rate average = 0.100969
	minimum = 0.085 (at node 12)
	maximum = 0.111 (at node 3)
Accepted flit rate average= 0.101031
	minimum = 0.089 (at node 12)
	maximum = 0.112 (at node 7)
Injected packet length average = 1
Accepted packet length average = 1
Total in-flight flits = 45 (45 measured)
latency change    = 0.038229
throughput change = 0.013919
Class 0:
Packet latency average = 44.7669
	minimum = 7
	maximum = 718
Network latency average = 27.2404
	minimum = 7
	maximum = 313
Slowest packet = 73070
Flit latency average = 27.4044
	minimum = 7
	maximum = 313
Slowest flit = 73829
Fragmentation average = 0
	minimum = 0
	maximum = 0
Injected packet rate average = 0.1003
	minimum = 0.0824 (at node 12)
	maximum = 0.1088 (at node 3)
Accepted packet rate average = 0.100275
	minimum = 0.0924 (at node 6)
	maximum = 0.1096 (at node 7)
Injected flit rate average = 0.1003
	minimum = 0.0824 (at node 12)
	maximum = 0.1088 (at node 3)
Accepted flit rate average= 0.100275
	minimum = 0.0924 (at node 6)
	maximum = 0.1096 (at node 7)
Injected packet length average = 1
Accepted packet length average = 1
Total in-flight flits = 49 (49 measured)
latency change    = 0.0478895
throughput change = 0.00754176
Draining all recorded packets ...
Draining remaining packets ...
Time taken is 4752 cycles
Class 0:
Packet latency average = 23.4507
	minimum = 7
	maximum = 75
Network latency average = 23.4347
	minimum = 7
	maximum = 74
Slowest packet = 78357
Flit latency average = 23.4347
	minimum = 7
	maximum = 74
Slowest flit = 78637
Fragmentation average = 0
	minimum = 0
	maximum = 0
Injected packet rate average = 0.098375
	minimum = 0.08 (at node 8)
	maximum = 0.122 (at node 14)
Accepted packet rate average = 0.09375
	minimum = 0.066 (at node 11)
	maximum = 0.12 (at node 9)
Injected flit rate average = 0.098375
	minimum = 0.08 (at node 8)
	maximum = 0.122 (at node 14)
Accepted flit rate average= 0.09375
	minimum = 0.066 (at node 11)
	maximum = 0.12 (at node 9)
Injected packet length average = 1
Accepted packet length average = 1
Total in-flight flits = 37 (0 measured)
latency change    = 1
throughput change = 1
Class 0:
Packet latency average = 25.9758
	minimum = 7
	maximum = 213
Network latency average = 24.7565
	minimum = 7
	maximum = 188
Slowest packet = 79081
Flit latency average = 24.7565
	minimum = 7
	maximum = 188
Slowest flit = 79081
Fragmentation average = 0
	minimum = 0
	maximum = 0
Injected packet rate average = 0.0985
	minimum = 0.082 (at node 3)
	maximum = 0.12 (at node 14)
Accepted packet rate average = 0.09575
	minimum = 0.077 (at node 12)
	maximum = 0.112 (at node 6)
Injected flit rate average = 0.0985
	minimum = 0.082 (at node 3)
	maximum = 0.12 (at node 14)
Accepted flit rate average= 0.09575
	minimum = 0.077 (at node 12)
	maximum = 0.112 (at node 6)
Injected packet length average = 1
Accepted packet length average = 1
Total in-flight flits = 44 (0 measured)
latency change    = 0.0972127
throughput change = 0.0208877
Class 0:
Packet latency average = 30.8266
	minimum = 7
	maximum = 210
Network latency average = 27.2538
	minimum = 7
	maximum = 186
Slowest packet = 79605
Flit latency average = 27.2538
	minimum = 7
	maximum = 186
Slowest flit = 80077
Fragmentation average = 0
	minimum = 0
	maximum = 0
Injected packet rate average = 0.099
	minimum = 0.082 (at node 11)
	maximum = 0.118 (at node 3)
Accepted packet rate average = 0.0995
	minimum = 0.076 (at node 6)
	maximum = 0.118 (at node 4)
Injected flit rate average = 0.099
	minimum = 0.082 (at node 11)
	maximum = 0.118 (at node 3)
Accepted flit rate average= 0.0995
	minimum = 0.076 (at node 6)
	maximum = 0.118 (at node 4)
Injected packet length average = 1
Accepted packet length average = 1
Total in-flight flits = 40 (0 measured)
latency change    = 0.157357
throughput change = 0.0376884
Warmed up ...Time used is 1500 cycles
Class 0:
Packet latency average = 25.0532
	minimum = 7
	maximum = 119
Network latency average = 23.9947
	minimum = 7
	maximum = 111
Slowest packet = 80467
Flit latency average = 24.5568
	minimum = 7
	maximum = 111
Slowest flit = 81019
Fragmentation average = 0
	minimum = 0
	maximum = 0
Injected packet rate average = 0.09775
	minimum = 0.08 (at node 8)
	maximum = 0.12 (at node 0)
Accepted packet rate average = 0.099
	minimum = 0.08 (at node 12)
	maximum = 0.118 (at node 3)
Injected flit rate average = 0.09775
	minimum = 0.08 (at node 8)
	maximum = 0.12 (at node 0)
Accepted flit rate average= 0.099
	minimum = 0.08 (at node 12)
	maximum = 0.118 (at node 3)
Injected packet length average = 1
Accepted packet length average = 1
Total in-flight flits = 31 (31 measured)
latency change    = 0.230447
throughput change = 0.00505051
Class 0:
Packet latency average = 26.6086
	minimum = 7
	maximum = 152
Network latency average = 25.1154
	minimum = 7
	maximum = 116
Slowest packet = 80467
Flit latency average = 25.3671
	minimum = 7
	maximum = 116
Slowest flit = 81344
Fragmentation average = 0
	minimum = 0
	maximum = 0
Injected packet rate average = 0.1
	minimum = 0.089 (at node 3)
	maximum = 0.117 (at node 2)
Accepted packet rate average = 0.0994375
	minimum = 0.086 (at node 6)
	maximum = 0.119 (at node 9)
Injected flit rate average = 0.1
	minimum = 0.089 (at node 3)
	maximum = 0.117 (at node 2)
Accepted flit rate average= 0.0994375
	minimum = 0.086 (at node 6)
	maximum = 0.119 (at node 9)
Injected packet length average = 1
Accepted packet length average = 1
Total in-flight flits = 50 (50 measured)
latency change    = 0.0584565
throughput change = 0.00439975
Class 0:
Packet latency average = 28.8687
	minimum = 7
	maximum = 381
Network latency average = 25.7117
	minimum = 7
	maximum = 232
Slowest packet = 80467
Flit latency average = 25.868
	minimum = 7
	maximum = 232
Slowest flit = 82170
Fragmentation average = 0
	minimum = 0
	maximum = 0
Injected packet rate average = 0.101042
	minimum = 0.088 (at node 12)
	maximum = 0.116667 (at node 1)
Accepted packet rate average = 0.100375
	minimum = 0.092 (at node 10)
	maximum = 0.110667 (at node 2)
Injected flit rate average = 0.101042
	minimum = 0.088 (at node 12)
	maximum = 0.116667 (at node 1)
Accepted flit rate average= 0.100375
	minimum = 0.092 (at node 10)
	maximum = 0.110667 (at node 2)
Injected packet length average = 1
Accepted packet length average = 1
Total in-flight flits = 56 (56 measured)
latency change    = 0.0782882
throughput change = 0.00933998
Class 0:
Packet latency average = 33.0117
	minimum = 7
	maximum = 602
Network latency average = 25.8462
	minimum = 7
	maximum = 232
Slowest packet = 80467
Flit latency average = 25.9617
	minimum = 7
	maximum = 232
Slowest flit = 82170
Fragmentation average = 0
	minimum = 0
	maximum = 0
Injected packet rate average = 0.1005
	minimum = 0.0835 (at node 12)
	maximum = 0.1145 (at node 1)
Accepted packet rate average = 0.100375
	minimum = 0.0935 (at node 11)
	maximum = 0.114 (at node 2)
Injected flit rate average = 0.1005
	minimum = 0.0835 (at node 12)
	maximum = 0.1145 (at node 1)
Accepted flit rate average= 0.100375
	minimum = 0.0935 (at node 11)
	maximum = 0.114 (at node 2)
Injected packet length average = 1
Accepted packet length average = 1
Total in-flight flits = 45 (45 measured)
latency change    = 0.125499
throughput change = 0
Class 0:
Packet latency average = 38.0723
	minimum = 7
	maximum = 658
Network latency average = 25.9073
	minimum = 7
	maximum = 232
Slowest packet = 80467
Flit latency average = 25.9993
	minimum = 7
	maximum = 232
Slowest flit = 82170
Fragmentation average = 0
	minimum = 0
	maximum = 0
Injected packet rate average = 0.100175
	minimum = 0.0864 (at node 12)
	maximum = 0.1116 (at node 1)
Accepted packet rate average = 0.100275
	minimum = 0.094 (at node 10)
	maximum = 0.116 (at node 2)
Injected flit rate average = 0.100175
	minimum = 0.0864 (at node 12)
	maximum = 0.1116 (at node 1)
Accepted flit rate average= 0.100275
	minimum = 0.094 (at node 10)
	maximum = 0.116 (at node 2)
Injected packet length average = 1
Accepted packet length average = 1
Total in-flight flits = 37 (37 measured)
latency change    = 0.132921
throughput change = 0.000997258
Class 0:
Packet latency average = 40.3576
	minimum = 7
	maximum = 752
Network latency average = 25.8559
	minimum = 7
	maximum = 232
Slowest packet = 80467
Flit latency average = 25.9327
	minimum = 7
	maximum = 232
Slowest flit = 82170
Fragmentation average = 0
	minimum = 0
	maximum = 0
Injected packet rate average = 0.1005
	minimum = 0.0843333 (at node 12)
	maximum = 0.11 (at node 1)
Accepted packet rate average = 0.100583
	minimum = 0.095 (at node 10)
	maximum = 0.113 (at node 2)
Injected flit rate average = 0.1005
	minimum = 0.0843333 (at node 12)
	maximum = 0.11 (at node 1)
Accepted flit rate average= 0.100583
	minimum = 0.095 (at node 10)
	maximum = 0.113 (at node 2)
Injected packet length average = 1
Accepted packet length average = 1
Total in-flight flits = 37 (37 measured)
latency change    = 0.056626
throughput change = 0.00306545
Class 0:
Packet latency average = 42.1886
	minimum = 7
	maximum = 752
Network latency average = 25.6831
	minimum = 7
	maximum = 232
Slowest packet = 80467
Flit latency average = 25.7506
	minimum = 7
	maximum = 232
Slowest flit = 82170
Fragmentation average = 0
	minimum = 0
	maximum = 0
Injected packet rate average = 0.0997857
	minimum = 0.0831429 (at node 12)
	maximum = 0.106571 (at node 1)
Accepted packet rate average = 0.0998214
	minimum = 0.0951429 (at node 0)
	maximum = 0.108571 (at node 5)
Injected flit rate average = 0.0997857
	minimum = 0.0831429 (at node 12)
	maximum = 0.106571 (at node 1)
Accepted flit rate average= 0.0998214
	minimum = 0.0951429 (at node 0)
	maximum = 0.108571 (at node 5)
Injected packet length average = 1
Accepted packet length average = 1
Total in-flight flits = 39 (39 measured)
latency change    = 0.0434024
throughput change = 0.00763268
Draining all recorded packets ...
Draining remaining packets ...
Time taken is 5920 cycles
Class 0:
Packet latency average = 24.317
	minimum = 7
	maximum = 106
[...]
	minimum = 0.076 (at node 3)
	maximum = 0.118 (at node 11)
Injected flit rate average = 0.0985
	minimum = 0.062 (at node 12)
	maximum = 0.124 (at node 0)
Accepted flit rate average= 0.09775
	minimum = 0.076 (at node 3)
	maximum = 0.118 (at node 11)
Injected packet length average = 1
Accepted packet length average = 1
Total in-flight flits = 52 (52 measured)
latency change    = 0.307097
throughput change = 0.00639386
Class 0:
Packet latency average = 45.2959
	minimum = 7
	maximum = 647
Network latency average = 26.2332
	minimum = 7
	maximum = 174
Slowest packet = 419421
Flit latency average = 26.8556
	minimum = 7
	maximum = 201
Slowest flit = 419236
Fragmentation average = 0
	minimum = 0
	maximum = 0
Injected packet rate average = 0.0989375
	minimum = 0.074 (at node 12)
	maximum = 0.126 (at node 0)
Accepted packet rate average = 0.0995625
	minimum = 0.088 (at node 10)
	maximum = 0.114 (at node 15)
Injected flit rate average = 0.0989375
	minimum = 0.074 (at node 12)
	maximum = 0.126 (at node 0)
Accepted flit rate average= 0.0995625
	minimum = 0.088 (at node 10)
	maximum = 0.114 (at node 15)
Injected packet length average = 1
Accepted packet length average = 1
Total in-flight flits = 36 (36 measured)
latency change    = 0.113982
throughput change = 0.0182046
Class 0:
Packet latency average = 48.7575
	minimum = 7
	maximum = 647
Network latency average = 25.9336
	minimum = 7
	maximum = 174
Slowest packet = 419421
Flit latency average = 26.3589
	minimum = 7
	maximum = 201
Slowest flit = 419236
Fragmentation average = 0
	minimum = 0
	maximum = 0
Injected packet rate average = 0.098125
	minimum = 0.0833333 (at node 12)
	maximum = 0.116 (at node 0)
Accepted packet rate average = 0.0984583
	minimum = 0.0886667 (at node 4)
	maximum = 0.109333 (at node 11)
Injected flit rate average = 0.098125
	minimum = 0.0833333 (at node 12)
	maximum = 0.116 (at node 0)
Accepted flit rate average= 0.0984583
	minimum = 0.0886667 (at node 4)
	maximum = 0.109333 (at node 11)
Injected packet length average = 1
Accepted packet length average = 1
Total in-flight flits = 38 (38 measured)
latency change    = 0.0709979
throughput change = 0.0112146
Class 0:
Packet latency average = 50.2807
	minimum = 7
	maximum = 674
Network latency average = 26.1265
	minimum = 7
	maximum = 174
Slowest packet = 419421
Flit latency average = 26.4402
	minimum = 7
	maximum = 201
Slowest flit = 419236
Fragmentation average = 0
	minimum = 0
	maximum = 0
Injected packet rate average = 0.0992187
	minimum = 0.084 (at node 12)
	maximum = 0.111 (at node 0)
Accepted packet rate average = 0.09925
	minimum = 0.0915 (at node 4)
	maximum = 0.107 (at node 11)
Injected flit rate average = 0.0992187
	minimum = 0.084 (at node 12)
	maximum = 0.111 (at node 0)
Accepted flit rate average= 0.09925
	minimum = 0.0915 (at node 4)
	maximum = 0.107 (at node 11)
Injected packet length average = 1
Accepted packet length average = 1
Total in-flight flits = 45 (45 measured)
latency change    = 0.0302937
throughput change = 0.00797649
Class 0:
Packet latency average = 52.2736
	minimum = 7
	maximum = 772
Network latency average = 25.9566
	minimum = 7
	maximum = 174
Slowest packet = 419421
Flit latency average = 26.2087
	minimum = 7
	maximum = 201
Slowest flit = 419236
Fragmentation average = 0
	minimum = 0
	maximum = 0
Injected packet rate average = 0.099375
	minimum = 0.0852 (at node 12)
	maximum = 0.1112 (at node 0)
Accepted packet rate average = 0.099525
	minimum = 0.0908 (at node 4)
	maximum = 0.1068 (at node 11)
Injected flit rate average = 0.099375
	minimum = 0.0852 (at node 12)
	maximum = 0.1112 (at node 0)
Accepted flit rate average= 0.099525
	minimum = 0.0908 (at node 4)
	maximum = 0.1068 (at node 11)
Injected packet length average = 1
Accepted packet length average = 1
Total in-flight flits = 40 (40 measured)
latency change    = 0.0381241
throughput change = 0.00276312
Class 0:
Packet latency average = 54.8157
	minimum = 7
	maximum = 792
Network latency average = 25.933
	minimum = 7
	maximum = 174
Slowest packet = 419421
Flit latency average = 26.1414
	minimum = 7
	maximum = 201
Slowest flit = 419236
Fragmentation average = 0
	minimum = 0
	maximum = 0
Injected packet rate average = 0.100375
	minimum = 0.0893333 (at node 12)
	maximum = 0.113 (at node 0)
Accepted packet rate average = 0.1005
	minimum = 0.0943333 (at node 10)
	maximum = 0.104667 (at node 7)
Injected flit rate average = 0.100375
	minimum = 0.0893333 (at node 12)
	maximum = 0.113 (at node 0)
Accepted flit rate average= 0.1005
	minimum = 0.0943333 (at node 10)
	maximum = 0.104667 (at node 7)
Injected packet length average = 1
Accepted packet length average = 1
Total in-flight flits = 40 (40 measured)
latency change    = 0.046374
throughput change = 0.00970149
Draining all recorded packets ...
Draining remaining packets ...
Time taken is 5152 cycles
Class 0:
Packet latency average = 26.2668
	minimum = 7
	maximum = 234
Network latency average = 25.3023
	minimum = 7
	maximum = 211
Slowest packet = 425507
Flit latency average = 25.3023
	minimum = 7
	maximum = 211
Slowest flit = 425507
Fragmentation average = 0
	minimum = 0
	maximum = 0
Injected packet rate average = 0.096875
	minimum = 0.076 (at node 11)
	maximum = 0.116 (at node 8)
Accepted packet rate average = 0.091375
	minimum = 0.068 (at node 15)
	maximum = 0.112 (at node 5)
Injected flit rate average = 0.096875
	minimum = 0.076 (at node 11)
	maximum = 0.116 (at node 8)
Accepted flit rate average= 0.091375
	minimum = 0.068 (at node 15)
	maximum = 0.112 (at node 5)
Injected packet length average = 1
Accepted packet length average = 1
Total in-flight flits = 45 (0 measured)
latency change    = 1
throughput change = 1
Class 0:
Packet latency average = 31.9874
	minimum = 7
	maximum = 403
Network latency average = 26.2311
	minimum = 7
	maximum = 211
Slowest packet = 425507
Flit latency average = 26.2311
	minimum = 7
	maximum = 211
Slowest flit = 425507
Fragmentation average = 0
	minimum = 0
	maximum = 0
Injected packet rate average = 0.0960625
	minimum = 0.081 (at node 12)
	maximum = 0.113 (at node 2)
Accepted packet rate average = 0.094125
	minimum = 0.08 (at node 2)
	maximum = 0.109 (at node 5)
Injected flit rate average = 0.0960625
	minimum = 0.081 (at node 12)
	maximum = 0.113 (at node 2)
Accepted flit rate average= 0.094125
	minimum = 0.08 (at node 2)
	maximum = 0.109 (at node 5)
Injected packet length average = 1
Accepted packet length average = 1
Total in-flight flits = 32 (0 measured)
latency change    = 0.17884
throughput change = 0.0292165
Class 0:
Packet latency average = 39.0649
	minimum = 7
	maximum = 424
Network latency average = 25.661
	minimum = 7
	maximum = 157
Slowest packet = 426584
Flit latency average = 25.661
	minimum = 7
	maximum = 157
Slowest flit = 426704
Fragmentation average = 0
	minimum = 0
	maximum = 0
Injected packet rate average = 0.098
	minimum = 0.08 (at node 4)
	maximum = 0.12 (at node 15)
Accepted packet rate average = 0.09625
	minimum = 0.078 (at node 10)
	maximum = 0.108 (at node 15)
Injected flit rate average = 0.098
	minimum = 0.08 (at node 4)
	maximum = 0.12 (at node 15)
Accepted flit rate average= 0.09625
	minimum = 0.078 (at node 10)
	maximum = 0.108 (at node 15)
Injected packet length average = 1
Accepted packet length average = 1
Total in-flight flits = 46 (0 measured)
latency change    = 0.181174
throughput change = 0.0220779
Warmed up ...Time used is 1500 cycles
Class 0:
Packet latency average = 41.7303
	minimum = 7
	maximum = 510
Network latency average = 26.2817
	minimum = 7
	maximum = 176
Slowest packet = 427464
Flit latency average = 27.0478
	minimum = 7
	maximum = 176
Slowest flit = 427914
Fragmentation average = 0
	minimum = 0
	maximum = 0
Injected packet rate average = 0.098375
	minimum = 0.076 (at node 0)
	maximum = 0.118 (at node 10)
Accepted packet rate average = 0.099375
	minimum = 0.076 (at node 6)
	maximum = 0.136 (at node 4)
Injected flit rate average = 0.098375
	minimum = 0.076 (at node 0)
	maximum = 0.118 (at node 10)
Accepted flit rate average= 0.099375
	minimum = 0.076 (at node 6)
	maximum = 0.136 (at node 4)
Injected packet length average = 1
Accepted packet length average = 1
Total in-flight flits = 38 (38 measured)
latency change    = 0.0638714
throughput change = 0.0314465
Class 0:
Packet latency average = 48.5604
	minimum = 7
	maximum = 589
Network latency average = 25.8628
	minimum = 7
	maximum = 176
Slowest packet = 427464
Flit latency average = 26.2613
	minimum = 7
	maximum = 176
Slowest flit = 427914
Fragmentation average = 0
	minimum = 0
	maximum = 0
Injected packet rate average = 0.098125
	minimum = 0.081 (at node 4)
	maximum = 0.111 (at node 14)
Accepted packet rate average = 0.0985625
	minimum = 0.087 (at node 14)
	maximum = 0.122 (at node 4)
Injected flit rate average = 0.098125
	minimum = 0.081 (at node 4)
	maximum = 0.111 (at node 14)
Accepted flit rate average= 0.0985625
	minimum = 0.087 (at node 14)
	maximum = 0.122 (at node 4)
Injected packet length average = 1
Accepted packet length average = 1
Total in-flight flits = 39 (39 measured)
latency change    = 0.140652
throughput change = 0.0082435
Class 0:
Packet latency average = 50.8095
	minimum = 7
	maximum = 683
Network latency average = 25.7084
	minimum = 7
	maximum = 176
Slowest packet = 427464
Flit latency average = 25.9764
	minimum = 7
	maximum = 176
Slowest flit = 427914
Fragmentation average = 0
	minimum = 0
	maximum = 0
Injected packet rate average = 0.0985417
	minimum = 0.0846667 (at node 5)
	maximum = 0.120667 (at node 15)
Accepted packet rate average = 0.0987917
	minimum = 0.0873333 (at node 14)
	maximum = 0.118 (at node 4)
Injected flit rate average = 0.0985417
	minimum = 0.0846667 (at node 5)
	maximum = 0.120667 (at node 15)
Accepted flit rate average= 0.0987917
	minimum = 0.0873333 (at node 14)
	maximum = 0.118 (at node 4)
Injected packet length average = 1
Accepted packet length average = 1
Total in-flight flits = 41 (41 measured)
latency change    = 0.0442643
throughput change = 0.0023197
Class 0:
Packet latency average = 52.1165
	minimum = 7
	maximum = 787
Network latency average = 26.2045
	minimum = 7
	maximum = 194
Slowest packet = 427464
Flit latency average = 26.3978
	minimum = 7
	maximum = 194
Slowest flit = 429772
Fragmentation average = 0
	minimum = 0
	maximum = 0
Injected packet rate average = 0.0988125
	minimum = 0.084 (at node 12)
	maximum = 0.1205 (at node 15)
Accepted packet rate average = 0.0990625
	minimum = 0.0865 (at node 14)
	maximum = 0.112 (at node 4)
Injected flit rate average = 0.0988125
	minimum = 0.084 (at node 12)
	maximum = 0.1205 (at node 15)
Accepted flit rate average= 0.0990625
	minimum = 0.0865 (at node 14)
	maximum = 0.112 (at node 4)
Injected packet length average = 1
Accepted packet length average = 1
Total in-flight flits = 38 (38 measured)
latency change    = 0.0250795
throughput change = 0.00273396
Class 0:
Packet latency average = 54.8302
	minimum = 7
	maximum = 852
Network latency average = 26.1693
	minimum = 7
	maximum = 194
Slowest packet = 427464
Flit latency average = 26.3238
	minimum = 7
	maximum = 194
Slowest flit = 429772
Fragmentation average = 0
	minimum = 0
	maximum = 0
Injected packet rate average = 0.099225
	minimum = 0.0844 (at node 12)
	maximum = 0.1128 (at node 15)
Accepted packet rate average = 0.099375
	minimum = 0.0908 (at node 0)
	maximum = 0.1124 (at node 4)
Injected flit rate average = 0.099225
	minimum = 0.0844 (at node 12)
	maximum = 0.1128 (at node 15)
Accepted flit rate average= 0.099375
	minimum = 0.0908 (at node 0)
	maximum = 0.1124 (at node 4)
Injected packet length average = 1
Accepted packet length average = 1
Total in-flight flits = 40 (40 measured)
latency change    = 0.0494931
throughput change = 0.00314465
Draining all recorded packets ...
Class 0:
Remaining flits: 432793 432822 432842 432864 432881 432894 432895 432899 432904 432907 [...] (42 flits)
Measured flits: 432793 432822 432842 432864 432895 432899 (6 flits)
Draining remaining packets ...
Time taken is 5157 cycles
Class 0:
Packet latency average = 24.7082
	minimum = 7
	maximum = 121
Network latency average = 24.4589
	minimum = 7
	maximum = 100
Slowest packet = 433495
Flit latency average = 24.4589
	minimum = 7
	maximum = 100
Slowest flit = 433495
Fragmentation average = 0
	minimum = 0
	maximum = 0
Injected packet rate average = 0.099125
	minimum = 0.078 (at node 2)
	maximum = 0.124 (at node 13)
Accepted packet rate average = 0.09425
	minimum = 0.074 (at node 10)
	maximum = 0.118 (at node 4)
Injected flit rate average = 0.099125
	minimum = 0.078 (at node 2)
	maximum = 0.124 (at node 13)
Accepted flit rate average= 0.09425
	minimum = 0.074 (at node 10)
	maximum = 0.118 (at node 4)
Injected packet length average = 1
Accepted packet length average = 1
Total in-flight flits = 39 (0 measured)
latency change    = 1
throughput change = 1
Class 0:
Packet latency average = 26.2231
	minimum = 7
	maximum = 217
Network latency average = 25.0157
	minimum = 7
	maximum = 157
Slowest packet = 434163
Flit latency average = 25.0157
	minimum = 7
	maximum = 157
Slowest flit = 434241
Fragmentation average = 0
	minimum = 0
	maximum = 0
Injected packet rate average = 0.10175
	minimum = 0.085 (at node 9)
	maximum = 0.124 (at node 13)
Accepted packet rate average = 0.0994375
	minimum = 0.084 (at node 10)
	maximum = 0.117 (at node 4)
Injected flit rate average = 0.10175
	minimum = 0.085 (at node 9)
	maximum = 0.124 (at node 13)
Accepted flit rate average= 0.0994375
	minimum = 0.084 (at node 10)
	maximum = 0.117 (at node 4)
Injected packet length average = 1
Accepted packet length average = 1
Total in-flight flits = 38 (0 measured)
latency change    = 0.0577699
throughput change = 0.0521684
Class 0:
Packet latency average = 37.0681
	minimum = 7
	maximum = 415
Network latency average = 27.9827
	minimum = 7
	maximum = 208
Slowest packet = 434589
Flit latency average = 27.9827
	minimum = 7
	maximum = 208
Slowest flit = 434754
Fragmentation average = 0
	minimum = 0
	maximum = 0
Injected packet rate average = 0.101
	minimum = 0.072 (at node 12)
	maximum = 0.126 (at node 10)
Accepted packet rate average = 0.101
	minimum = 0.09 (at node 0)
	maximum = 0.114 (at node 14)
Injected flit rate average = 0.101
	minimum = 0.072 (at node 12)
	maximum = 0.126 (at node 10)
Accepted flit rate average= 0.101
	minimum = 0.09 (at node 0)
	maximum = 0.114 (at node 14)
Injected packet length average = 1
Accepted packet length average = 1
Total in-flight flits = 38 (0 measured)
latency change    = 0.292568
throughput change = 0.0154703
Warmed up ...Time used is 1500 cycles
Class 0:
Packet latency average = 37.1709
	minimum = 7
	maximum = 397
Network latency average = 25.1759
	minimum = 7
	maximum = 167
Slowest packet = 435546
Flit latency average = 25.6329
	minimum = 7
	maximum = 167
Slowest flit = 435995
Fragmentation average = 0
	minimum = 0
	maximum = 0
Injected packet rate average = 0.103
	minimum = 0.082 (at node 2)
	maximum = 0.136 (at node 4)
Accepted packet rate average = 0.1035
	minimum = 0.088 (at node 14)
	maximum = 0.124 (at node 13)
Injected flit rate average = 0.103
	minimum = 0.082 (at node 2)
	maximum = 0.136 (at node 4)
Accepted flit rate average= 0.1035
	minimum = 0.088 (at node 14)
	maximum = 0.124 (at node 13)
Injected packet length average = 1
Accepted packet length average = 1
Total in-flight flits = 34 (34 measured)
latency change    = 0.00276606
throughput change = 0.0241546
Class 0:
Packet latency average = 40.2582
	minimum = 7
	maximum = 439
Network latency average = 25.1275
	minimum = 7
	maximum = 167
Slowest packet = 435546
Flit latency average = 25.3631
	minimum = 7
	maximum = 167
Slowest flit = 435995
Fragmentation average = 0
	minimum = 0
	maximum = 0
Injected packet rate average = 0.100562
	minimum = 0.09 (at node 7)
	maximum = 0.116 (at node 9)
Accepted packet rate average = 0.100875
	minimum = 0.088 (at node 1)
	maximum = 0.119 (at node 3)
Injected flit rate average = 0.100562
	minimum = 0.09 (at node 7)
	maximum = 0.116 (at node 9)
Accepted flit rate average= 0.100875
	minimum = 0.088 (at node 1)
	maximum = 0.119 (at node 3)
Injected packet length average = 1
Accepted packet length average = 1
Total in-flight flits = 33 (33 measured)
latency change    = 0.0766889
throughput change = 0.0260223
Class 0:
Packet latency average = 41.8382
	minimum = 7
	maximum = 489
Network latency average = 25.8517
	minimum = 7
	maximum = 172
Slowest packet = 435546
Flit latency average = 25.9979
	minimum = 7
	maximum = 172
Slowest flit = 437343
Fragmentation average = 0
	minimum = 0
	maximum = 0
Injected packet rate average = 0.100708
	minimum = 0.0893333 (at node 7)
	maximum = 0.12 (at node 9)
Accepted packet rate average = 0.1005
	minimum = 0.0886667 (at node 9)
	maximum = 0.114667 (at node 3)
Injected flit rate average = 0.100708
	minimum = 0.0893333 (at node 7)
	maximum = 0.12 (at node 9)
Accepted flit rate average= 0.1005
	minimum = 0.0886667 (at node 9)
	maximum = 0.114667 (at node 3)
Injected packet length average = 1
Accepted packet length average = 1
Total in-flight flits = 43 (43 measured)
latency change    = 0.0377645
throughput change = 0.00373134
Class 0:
Packet latency average = 42.5942
	minimum = 7
	maximum = 575
Network latency average = 26.0353
	minimum = 7
	maximum = 199
Slowest packet = 435546
Flit latency average = 26.1429
	minimum = 7
	maximum = 199
Slowest flit = 437948
Fragmentation average = 0
	minimum = 0
	maximum = 0
Injected packet rate average = 0.100312
	minimum = 0.086 (at node 12)
	maximum = 0.1175 (at node 9)
Accepted packet rate average = 0.100375
	minimum = 0.092 (at node 11)
	maximum = 0.1105 (at node 3)
Injected flit rate average = 0.100312
	minimum = 0.086 (at node 12)
	maximum = 0.1175 (at node 9)
Accepted flit rate average= 0.100375
	minimum = 0.092 (at node 11)
	maximum = 0.1105 (at node 3)
Injected packet length average = 1
Accepted packet length average = 1
Total in-flight flits = 36 (36 measured)
latency change    = 0.0177478
throughput change = 0.00124533
Class 0:
Packet latency average = 43.9124
	minimum = 7
	maximum = 575
Network latency average = 25.9749
	minimum = 7
	maximum = 199
Slowest packet = 435546
Flit latency average = 26.0623
	minimum = 7
	maximum = 199
Slowest flit = 437948
Fragmentation average = 0
	minimum = 0
	maximum = 0
Injected packet rate average = 0.09945
	minimum = 0.0844 (at node 12)
	maximum = 0.1152 (at node 13)
Accepted packet rate average = 0.09945
	minimum = 0.09 (at node 11)
	maximum = 0.1128 (at node 3)
Injected flit rate average = 0.09945
	minimum = 0.0844 (at node 12)
	maximum = 0.1152 (at node 13)
Accepted flit rate average= 0.09945
	minimum = 0.09 (at node 11)
	maximum = 0.1128 (at node 3)
Injected packet length average = 1
Accepted packet length average = 1
Total in-flight flits = 38 (38 measured)
latency change    = 0.0300196
throughput change = 0.00930116
Draining all recorded packets ...
Draining remaining packets ...
Time taken is 4681 cycles
====== Overall Traffic Statistics ======
====== Traffic class 0 ======
Packet latency average = 68.9238 (50 samples)
	minimum = 7 (50 samples)
	maximum = 1089.76 (50 samples)
Network latency average = 26.9537 (50 samples)
	minimum = 7 (50 samples)
	maximum = 230.28 (50 samples)
Flit latency average = 26.2823 (50 samples)
	minimum = 7 (50 samples)
	maximum = 237.1 (50 samples)
Fragmentation average = 0 (50 samples)
	minimum = 0 (50 samples)
	maximum = 0 (50 samples)
Injected packet rate average = 0.0990847 (50 samples)
	minimum = 0.0824468 (50 samples)
	maximum = 0.109424 (50 samples)
Accepted packet rate average = 0.0990748 (50 samples)
	minimum = 0.0895955 (50 samples)
	maximum = 0.108364 (50 samples)
Injected flit rate average = 0.0990847 (50 samples)
	minimum = 0.0824468 (50 samples)
	maximum = 0.109424 (50 samples)
Accepted flit rate average = 0.0990748 (50 samples)
	minimum = 0.0895955 (50 samples)
	maximum = 0.108364 (50 samples)
Injected packet size average = 1 (50 samples)
Accepted packet size average = 1 (50 samples)
Hops average = 3.53907 (50 samples)
Total run time 4.80132
