BEGIN Configuration File: /tmp/tmpmzs82kyu.cfg
topology = mesh;
k = 4;
n = 2;
routing_function = planar_adapt;
num_vcs = 4;
vc_buf_size = 4;
wait_for_tail_credit = 1;
vc_allocator = islip;
sw_allocator = islip;
alloc_iters = 1;
credit_delay = 2;
routing_delay = 1;
vc_alloc_delay = 1;
sw_alloc_delay = 1;
input_speedup = 2;
output_speedup = 1;
internal_speedup = 1.0;
traffic = transpose;
packet_size = 1;
sim_type = latency;
injection_rate = 0.01;
warmup_periods = 3;
sample_period = 500;
sim_count = 50;
seed = 0;
link_failures = 1;
fail_seed = 202;

END Configuration File: /tmp/tmpmzs82kyu.cfg
failure at node 4, channel 2 (1/1)
Class 0:
Packet latency average = 19.8
	minimum = 7
	maximum = 47
Network latency average = 19.8
	minimum = 7
	maximum = 47
Slowest packet = 1
Flit latency average = 19.8
	minimum = 7
	maximum = 47
Slowest flit = 1
Fragmentation average = 0
	minimum = 0
	maximum = 0
Injected packet rate average = 0.010375
	minimum = 0.004 (at node 5)
	maximum = 0.016 (at node 9)
Accepted packet rate average = 0.01
	minimum = 0.004 (at node 5)
	maximum = 0.016 (at node 6)
Injected flit rate average = 0.010375
	minimum = 0.004 (at node 5)
	maximum = 0.016 (at node 9)
Accepted flit rate average= 0.01
	minimum = 0.004 (at node 5)
	maximum = 0.016 (at node 6)
Injected packet length average = 1
Accepted packet length average = 1
Total in-flight flits = 3 (0 measured)
latency change    = 1
throughput change = 1
Class 0:
Packet latency average = 20.2338
	minimum = 7
	maximum = 47
Network latency average = 20.2338
	minimum = 7
	maximum = 47
Slowest packet = 1
Flit latency average = 20.2338
	minimum = 7
	maximum = 47
Slowest flit = 1
Fragmentation average = 0
	minimum = 0
	maximum = 0
Injected packet rate average = 0.00975
	minimum = 0.004 (at node 11)
	maximum = 0.014 (at node 13)
Accepted packet rate average = 0.009625
	minimum = 0.003 (at node 14)
	maximum = 0.014 (at node 7)
Injected flit rate average = 0.00975
	minimum = 0.004 (at node 11)
	maximum = 0.014 (at node 13)
Accepted flit rate average= 0.009625
	minimum = 0.003 (at node 14)
	maximum = 0.014 (at node 7)
Injected packet length average = 1
Accepted packet length average = 1
Total in-flight flits = 2 (0 measured)
latency change    = 0.0214377
throughput change = 0.038961
Class 0:
Packet latency average = 19.7971
	minimum = 7
	maximum = 48
Network latency average = 19.7971
	minimum = 7
	maximum = 48
Slowest packet = 158
Flit latency average = 19.7971
	minimum = 7
	maximum = 48
Slowest flit = 158
Fragmentation average = 0
	minimum = 0
	maximum = 0
Injected packet rate average = 0.00925
	minimum = 0.002 (at node 11)
	maximum = 0.016 (at node 10)
Accepted packet rate average = 0.008625
	minimum = 0.002 (at node 7)
	maximum = 0.016 (at node 10)
Injected flit rate average = 0.00925
	minimum = 0.002 (at node 11)
	maximum = 0.016 (at node 10)
Accepted flit rate average= 0.008625
	minimum = 0.002 (at node 7)
	maximum = 0.016 (at node 10)
Injected packet length average = 1
Accepted packet length average = 1
Total in-flight flits = 7 (0 measured)
latency change    = 0.022057
throughput change = 0.115942
Warmed up ...Time used is 1500 cycles
Class 0:
Packet latency average = 22.24
	minimum = 7
	maximum = 47
Network latency average = 22.24
	minimum = 7
	maximum = 47
Slowest packet = 259
Flit latency average = 23.8415
	minimum = 7
	maximum = 56
Slowest flit = 226
Fragmentation average = 0
	minimum = 0
	maximum = 0
Injected packet rate average = 0.00975
	minimum = 0.004 (at node 3)
	maximum = 0.018 (at node 8)
Accepted packet rate average = 0.01025
	minimum = 0.004 (at node 1)
	maximum = 0.02 (at node 8)
Injected flit rate average = 0.00975
	minimum = 0.004 (at node 3)
	maximum = 0.018 (at node 8)
Accepted flit rate average= 0.01025
	minimum = 0.004 (at node 1)
	maximum = 0.02 (at node 8)
Injected packet length average = 1
Accepted packet length average = 1
Total in-flight flits = 3 (3 measured)
latency change    = 0.109843
throughput change = 0.158537
Class 0:
Packet latency average = 21.4641
	minimum = 7
	maximum = 47
Network latency average = 21.4641
	minimum = 7
	maximum = 47
Slowest packet = 259
Flit latency average = 22.3188
	minimum = 7
	maximum = 56
Slowest flit = 226
Fragmentation average = 0
	minimum = 0
	maximum = 0
Injected packet rate average = 0.0096875
	minimum = 0.005 (at node 7)
	maximum = 0.016 (at node 13)
Accepted packet rate average = 0.01
	minimum = 0.005 (at node 13)
	maximum = 0.016 (at node 7)
Injected flit rate average = 0.0096875
	minimum = 0.005 (at node 7)
	maximum = 0.016 (at node 13)
Accepted flit rate average= 0.01
	minimum = 0.005 (at node 13)
	maximum = 0.016 (at node 7)
Injected packet length average = 1
Accepted packet length average = 1
Total in-flight flits = 2 (2 measured)
latency change    = 0.036151
throughput change = 0.025
Class 0:
Packet latency average = 21.7553
	minimum = 7
	maximum = 53
Network latency average = 21.7553
	minimum = 7
	maximum = 53
Slowest packet = 390
Flit latency average = 22.3074
	minimum = 7
	maximum = 56
Slowest flit = 226
Fragmentation average = 0
	minimum = 0
	maximum = 0
Injected packet rate average = 0.00991667
	minimum = 0.00733333 (at node 7)
	maximum = 0.0133333 (at node 13)
Accepted packet rate average = 0.0101667
	minimum = 0.00666667 (at node 13)
	maximum = 0.0133333 (at node 7)
Injected flit rate average = 0.00991667
	minimum = 0.00733333 (at node 7)
	maximum = 0.0133333 (at node 13)
Accepted flit rate average= 0.0101667
	minimum = 0.00666667 (at node 13)
	maximum = 0.0133333 (at node 7)
Injected packet length average = 1
Accepted packet length average = 1
Total in-flight flits = 1 (1 measured)
latency change    = 0.0133863
throughput change = 0.0163934
Class 0:
Packet latency average = 21.5304
	minimum = 7
	maximum = 53
Network latency average = 21.5304
	minimum = 7
	maximum = 53
Slowest packet = 390
Flit latency average = 21.9563
	minimum = 7
	maximum = 56
Slowest flit = 226
Fragmentation average = 0
	minimum = 0
	maximum = 0
Injected packet rate average = 0.00990625
	minimum = 0.0075 (at node 1)
	maximum = 0.013 (at node 8)
Accepted packet rate average = 0.01
	minimum = 0.0075 (at node 4)
	maximum = 0.013 (at node 2)
Injected flit rate average = 0.00990625
	minimum = 0.0075 (at node 1)
	maximum = 0.013 (at node 8)
Accepted flit rate average= 0.01
	minimum = 0.0075 (at node 4)
	maximum = 0.013 (at node 2)
Injected packet length average = 1
Accepted packet length average = 1
Total in-flight flits = 4 (4 measured)
latency change    = 0.0104468
throughput change = 0.0166667
Draining all recorded packets ...
Draining remaining packets ...
Time taken is 3564 cycles
Class 0:
Packet latency average = 20.6094
	minimum = 7
	maximum = 48
Network latency average = 20.6094
	minimum = 7
	maximum = 48
Slowest packet = 578
Flit latency average = 20.6094
	minimum = 7
	maximum = 48
Slowest flit = 578
Fragmentation average = 0
	minimum = 0
	maximum = 0
Injected packet rate average = 0.008
	minimum = 0.002 (at node 5)
	maximum = 0.016 (at node 11)
Accepted packet rate average = 0.008
	minimum = 0.002 (at node 5)
	maximum = 0.016 (at node 14)
Injected flit rate average = 0.008
	minimum = 0.002 (at node 5)
	maximum = 0.016 (at node 11)
Accepted flit rate average= 0.008
	minimum = 0.002 (at node 5)
	maximum = 0.016 (at node 14)
Injected packet length average = 1
Accepted packet length average = 1
Total in-flight flits = 0 (0 measured)
latency change    = 1
throughput change = 1
Class 0:
Packet latency average = 19.993
	minimum = 7
	maximum = 48
Network latency average = 19.993
	minimum = 7
	maximum = 48
Slowest packet = 578
Flit latency average = 19.993
	minimum = 7
	maximum = 48
Slowest flit = 578
Fragmentation average = 0
	minimum = 0
	maximum = 0
Injected packet rate average = 0.009125
	minimum = 0.006 (at node 5)
	maximum = 0.017 (at node 10)
Accepted packet rate average = 0.008875
	minimum = 0.006 (at node 2)
	maximum = 0.017 (at node 10)
Injected flit rate average = 0.009125
	minimum = 0.006 (at node 5)
	maximum = 0.017 (at node 10)
Accepted flit rate average= 0.008875
	minimum = 0.006 (at node 2)
	maximum = 0.017 (at node 10)
Injected packet length average = 1
Accepted packet length average = 1
Total in-flight flits = 4 (0 measured)
latency change    = 0.0308317
throughput change = 0.0985915
Class 0:
Packet latency average = 21.7536
	minimum = 7
	maximum = 55
Network latency average = 21.7536
	minimum = 7
	maximum = 55
Slowest packet = 751
Flit latency average = 21.7536
	minimum = 7
	maximum = 55
Slowest flit = 751
Fragmentation average = 0
	minimum = 0
	maximum = 0
Injected packet rate average = 0.008875
	minimum = 0.004 (at node 9)
	maximum = 0.016 (at node 6)
Accepted packet rate average = 0.008625
	minimum = 0.004 (at node 6)
	maximum = 0.016 (at node 9)
Injected flit rate average = 0.008875
	minimum = 0.004 (at node 9)
	maximum = 0.016 (at node 6)
Accepted flit rate average= 0.008625
	minimum = 0.004 (at node 6)
	maximum = 0.016 (at node 9)
Injected packet length average = 1
Accepted packet length average = 1
Total in-flight flits = 6 (0 measured)
latency change    = 0.0809367
throughput change = 0.0289855
Warmed up ...Time used is 1500 cycles
Class 0:
Packet latency average = 18.9487
	minimum = 7
	maximum = 51
Network latency average = 18.9487
	minimum = 7
	maximum = 51
Slowest packet = 793
Flit latency average = 19.4048
	minimum = 7
	maximum = 51
Slowest flit = 793
Fragmentation average = 0
	minimum = 0
	maximum = 0
Injected packet rate average = 0.01
	minimum = 0.002 (at node 2)
	maximum = 0.02 (at node 15)
Accepted packet rate average = 0.0105
	minimum = 0.002 (at node 8)
	maximum = 0.02 (at node 15)
Injected flit rate average = 0.01
	minimum = 0.002 (at node 2)
	maximum = 0.02 (at node 15)
Accepted flit rate average= 0.0105
	minimum = 0.002 (at node 8)
	maximum = 0.02 (at node 15)
Injected packet length average = 1
Accepted packet length average = 1
Total in-flight flits = 2 (2 measured)
latency change    = 0.148026
throughput change = 0.178571
Class 0:
Packet latency average = 21.2781
	minimum = 7
	maximum = 51
Network latency average = 21.2781
	minimum = 7
	maximum = 51
Slowest packet = 793
Flit latency average = 21.4331
	minimum = 7
	maximum = 51
Slowest flit = 793
Fragmentation average = 0
	minimum = 0
	maximum = 0
Injected packet rate average = 0.009875
	minimum = 0.004 (at node 6)
	maximum = 0.015 (at node 3)
Accepted packet rate average = 0.0098125
	minimum = 0.005 (at node 8)
	maximum = 0.015 (at node 12)
Injected flit rate average = 0.009875
	minimum = 0.004 (at node 6)
	maximum = 0.015 (at node 3)
Accepted flit rate average= 0.0098125
	minimum = 0.005 (at node 8)
	maximum = 0.015 (at node 12)
Injected packet length average = 1
Accepted packet length average = 1
Total in-flight flits = 7 (7 measured)
latency change    = 0.109475
throughput change = 0.0700637
Class 0:
Packet latency average = 21.6218
	minimum = 7
	maximum = 56
Network latency average = 21.6218
	minimum = 7
	maximum = 56
Slowest packet = 982
Flit latency average = 21.7131
	minimum = 7
	maximum = 56
Slowest flit = 982
Fragmentation average = 0
	minimum = 0
	maximum = 0
Injected packet rate average = 0.010375
	minimum = 0.00533333 (at node 10)
	maximum = 0.018 (at node 3)
Accepted packet rate average = 0.0101667
	minimum = 0.006 (at node 8)
	maximum = 0.016 (at node 12)
Injected flit rate average = 0.010375
	minimum = 0.00533333 (at node 10)
	maximum = 0.018 (at node 3)
Accepted flit rate average= 0.0101667
	minimum = 0.006 (at node 8)
	maximum = 0.016 (at node 12)
Injected packet length average = 1
Accepted packet length average = 1
Total in-flight flits = 11 (11 measured)
latency change    = 0.0158961
throughput change = 0.0348361
Class 0:
Packet latency average = 21.7949
	minimum = 7
	maximum = 58
Network latency average = 21.7949
	minimum = 7
	maximum = 58
Slowest packet = 1013
Flit latency average = 21.8616
	minimum = 7
	maximum = 58
Slowest flit = 1013
Fragmentation average = 0
	minimum = 0
	maximum = 0
Injected packet rate average = 0.0099375
	minimum = 0.006 (at node 2)
	maximum = 0.0165 (at node 13)
Accepted packet rate average = 0.0099375
	minimum = 0.0055 (at node 8)
	maximum = 0.0155 (at node 7)
Injected flit rate average = 0.0099375
	minimum = 0.006 (at node 2)
	maximum = 0.0165 (at node 13)
Accepted flit rate average= 0.0099375
	minimum = 0.0055 (at node 8)
	maximum = 0.0155 (at node 7)
Injected packet length average = 1
Accepted packet length average = 1
Total in-flight flits = 6 (6 measured)
latency change    = 0.0079387
throughput change = 0.0230608
Class 0:
Packet latency average = 21.7437
	minimum = 7
	maximum = 58
Network latency average = 21.7437
	minimum = 7
	maximum = 58
Slowest packet = 1013
Flit latency average = 21.7975
	minimum = 7
	maximum = 58
Slowest flit = 1013
Fragmentation average = 0
	minimum = 0
	maximum = 0
Injected packet rate average = 0.009975
	minimum = 0.0072 (at node 2)
	maximum = 0.0156 (at node 13)
Accepted packet rate average = 0.01
	minimum = 0.0068 (at node 8)
	maximum = 0.0156 (at node 7)
Injected flit rate average = 0.009975
	minimum = 0.0072 (at node 2)
	maximum = 0.0156 (at node 13)
Accepted flit rate average= 0.01
	minimum = 0.0068 (at node 8)
	maximum = 0.0156 (at node 7)
Injected packet length average = 1
Accepted packet length average = 1
Total in-flight flits = 5 (5 measured)
latency change    = 0.00235549
throughput change = 0.00625
Draining all recorded packets ...
Draining remaining packets ...
Time taken is 4069 cycles
Class 0:
Packet latency average = 19.4432
	minimum = 7
	maximum = 53
Network latency average = 19.4432
	minimum = 7
	maximum = 53
Slowest packet = 1195
Flit latency average = 19.4432
	minimum = 7
	maximum = 53
Slowest flit = 1195
Fragmentation average = 0
	minimum = 0
	maximum = 0
Injected packet rate average = 0.011125
	minimum = 0.004 (at node 2)
	maximum = 0.018 (at node 6)
Accepted packet rate average = 0.011
	minimum = 0.004 (at node 8)
	maximum = 0.018 (at node 9)
Injected flit rate average = 0.011125
	minimum = 0.004 (at node 2)
	maximum = 0.018 (at node 6)
Accepted flit rate average= 0.011
	minimum = 0.004 (at node 8)
	maximum = 0.018 (at node 9)
Injected packet length average = 1
Accepted packet length average = 1
Total in-flight flits = 1 (0 measured)
latency change    = 1
throughput change = 1
Class 0:
Packet latency average = 20.3817
	minimum = 7
	maximum = 65
Network latency average = 20.3817
	minimum = 7
	maximum = 65
Slowest packet = 1315
Flit latency average = 20.3817
	minimum = 7
	maximum = 65
Slowest flit = 1315
Fragmentation average = 0
	minimum = 0
	maximum = 0
Injected packet rate average = 0.0116875
	minimum = 0.007 (at node 2)
	maximum = 0.017 (at node 6)
Accepted packet rate average = 0.011625
	minimum = 0.007 (at node 2)
	maximum = 0.017 (at node 9)
Injected flit rate average = 0.0116875
	minimum = 0.007 (at node 2)
	maximum = 0.017 (at node 6)
Accepted flit rate average= 0.011625
	minimum = 0.007 (at node 2)
	maximum = 0.017 (at node 9)
Injected packet length average = 1
Accepted packet length average = 1
Total in-flight flits = 1 (0 measured)
latency change    = 0.0460481
throughput change = 0.0537634
Class 0:
Packet latency average = 21.6667
	minimum = 7
	maximum = 56
Network latency average = 21.6667
	minimum = 7
	maximum = 56
Slowest packet = 1375
Flit latency average = 21.6667
	minimum = 7
	maximum = 56
Slowest flit = 1375
Fragmentation average = 0
	minimum = 0
	maximum = 0
Injected packet rate average = 0.011
	minimum = 0.004 (at node 5)
	maximum = 0.018 (at node 1)
Accepted packet rate average = 0.010875
	minimum = 0.004 (at node 5)
	maximum = 0.018 (at node 4)
Injected flit rate average = 0.011
	minimum = 0.004 (at node 5)
	maximum = 0.018 (at node 1)
Accepted flit rate average= 0.010875
	minimum = 0.004 (at node 5)
	maximum = 0.018 (at node 4)
Injected packet length average = 1
Accepted packet length average = 1
Total in-flight flits = 2 (0 measured)
latency change    = 0.0593052
throughput change = 0.0689655
Warmed up ...Time used is 1500 cycles
Class 0:
Packet latency average = 21.6712
	minimum = 7
	maximum = 48
Network latency average = 21.6712
	minimum = 7
	maximum = 48
Slowest packet = 1516
Flit latency average = 21.68
	minimum = 7
	maximum = 48
Slowest flit = 1516
Fragmentation average = 0
	minimum = 0
	maximum = 0
Injected packet rate average = 0.009625
	minimum = 0.002 (at node 5)
	maximum = 0.02 (at node 7)
Accepted packet rate average = 0.009375
	minimum = 0.002 (at node 5)
	maximum = 0.02 (at node 13)
Injected flit rate average = 0.009625
	minimum = 0.002 (at node 5)
	maximum = 0.02 (at node 7)
Accepted flit rate average= 0.009375
	minimum = 0.002 (at node 5)
	maximum = 0.02 (at node 13)
Injected packet length average = 1
Accepted packet length average = 1
Total in-flight flits = 4 (4 measured)
latency change    = 0.000210704
throughput change = 0.16
Class 0:
Packet latency average = 21.8741
	minimum = 7
	maximum = 53
Network latency average = 21.8741
	minimum = 7
	maximum = 53
Slowest packet = 1574
Flit latency average = 21.8759
	minimum = 7
	maximum = 53
Slowest flit = 1574
Fragmentation average = 0
	minimum = 0
	maximum = 0
Injected packet rate average = 0.0090625
	minimum = 0.004 (at node 2)
	maximum = 0.015 (at node 7)
Accepted packet rate average = 0.0090625
	minimum = 0.004 (at node 8)
	maximum = 0.014 (at node 10)
Injected flit rate average = 0.0090625
	minimum = 0.004 (at node 2)
	maximum = 0.015 (at node 7)
Accepted flit rate average= 0.0090625
	minimum = 0.004 (at node 8)
	maximum = 0.014 (at node 10)
Injected packet length average = 1
Accepted packet length average = 1
Total in-flight flits = 2 (2 measured)
latency change    = 0.00927548
throughput change = 0.0344828
Class 0:
Packet latency average = 20.4706
	minimum = 7
	maximum = 53
Network latency average = 20.4706
	minimum = 7
	maximum = 53
Slowest packet = 1574
Flit latency average = 20.4843
	minimum = 7
	maximum = 53
Slowest flit = 1574
Fragmentation average = 0
	minimum = 0
	maximum = 0
Injected packet rate average = 0.00941667
	minimum = 0.004 (at node 2)
	maximum = 0.012 (at node 3)
Accepted packet rate average = 0.00929167
	minimum = 0.00333333 (at node 8)
	maximum = 0.012 (at node 12)
Injected flit rate average = 0.00941667
	minimum = 0.004 (at node 2)
	maximum = 0.012 (at node 3)
Accepted flit rate average= 0.00929167
	minimum = 0.00333333 (at node 8)
	maximum = 0.012 (at node 12)
Injected packet length average = 1
Accepted packet length average = 1
Total in-flight flits = 5 (5 measured)
latency change    = 0.0685636
throughput change = 0.0246637
Class 0:
Packet latency average = 20.5748
	minimum = 7
	maximum = 53
Network latency average = 20.5748
	minimum = 7
	maximum = 53
Slowest packet = 1574
Flit latency average = 20.5842
	minimum = 7
	maximum = 53
Slowest flit = 1574
Fragmentation average = 0
	minimum = 0
	maximum = 0
Injected packet rate average = 0.0095
	minimum = 0.005 (at node 2)
	maximum = 0.012 (at node 1)
Accepted packet rate average = 0.00946875
	minimum = 0.005 (at node 8)
	maximum = 0.0125 (at node 4)
Injected flit rate average = 0.0095
	minimum = 0.005 (at node 2)
	maximum = 0.012 (at node 1)
Accepted flit rate average= 0.00946875
	minimum = 0.005 (at node 8)
	maximum = 0.0125 (at node 4)
Injected packet length average = 1
Accepted packet length average = 1
Total in-flight flits = 3 (3 measured)
latency change    = 0.00506264
throughput change = 0.0187019
Class 0:
Packet latency average = 20.9819
	minimum = 7
	maximum = 60
Network latency average = 20.9819
	minimum = 7
	maximum = 60
Slowest packet = 1759
Flit latency average = 20.9871
	minimum = 7
	maximum = 60
Slowest flit = 1759
Fragmentation average = 0
	minimum = 0
	maximum = 0
Injected packet rate average = 0.00975
	minimum = 0.0072 (at node 6)
	maximum = 0.0116 (at node 1)
Accepted packet rate average = 0.009725
	minimum = 0.0072 (at node 9)
	maximum = 0.012 (at node 4)
Injected flit rate average = 0.00975
	minimum = 0.0072 (at node 6)
	maximum = 0.0116 (at node 1)
Accepted flit rate average= 0.009725
	minimum = 0.0072 (at node 9)
	maximum = 0.012 (at node 4)
Injected packet length average = 1
Accepted packet length average = 1
Total in-flight flits = 3 (3 measured)
latency change    = 0.0194053
throughput change = 0.0263496
Class 0:
Packet latency average = 21.0825
	minimum = 7
	maximum = 60
Network latency average = 21.0825
	minimum = 7
	maximum = 60
Slowest packet = 1759
Flit latency average = 21.0863
	minimum = 7
	maximum = 60
Slowest flit = 1759
Fragmentation average = 0
	minimum = 0
	maximum = 0
Injected packet rate average = 0.00989583
	minimum = 0.00733333 (at node 6)
	maximum = 0.013 (at node 7)
Accepted packet rate average = 0.00989583
	minimum = 0.00733333 (at node 9)
	maximum = 0.013 (at node 13)
Injected flit rate average = 0.00989583
	minimum = 0.00733333 (at node 6)
	maximum = 0.013 (at node 7)
Accepted flit rate average= 0.00989583
	minimum = 0.00733333 (at node 9)
	maximum = 0.013 (at node 13)
Injected packet length average = 1
Accepted packet length average = 1
Total in-flight flits = 2 (2 measured)
latency change    = 0.00476891
throughput change = 0.0172632
Draining all recorded packets ...
Draining remaining packets ...
Time taken is 4549 cycles
Class 0:
Packet latency average = 22.7738
	minimum = 7
	maximum = 58
Network latency average = 22.7738
	minimum = 7
	maximum = 58
Slowest packet = 1966
Flit latency average = 22.7738
	minimum = 7
	maximum = 58
Slowest flit = 1966
Fragmentation average = 0
	minimum = 0
	maximum = 0
Injected packet rate average = 0.010625
	minimum = 0.004 (at node 9)
	maximum = 0.018 (at node 2)
Accepted packet rate average = 0.0105
	minimum = 0.004 (at node 6)
	maximum = 0.018 (at node 8)
Injected flit rate average = 0.010625
	minimum = 0.004 (at node 9)
	maximum = 0.018 (at node 2)
Accepted flit rate average= 0.0105
	minimum = 0.004 (at node 6)
	maximum = 0.018 (at node 8)
Injected packet length average = 1
Accepted packet length average = 1
Total in-flight flits = 1 (0 measured)
latency change    = 1
throughput change = 1
Class 0:
Packet latency average = 21.4615
	minimum = 7
	maximum = 58
Network latency average = 21.4615
	minimum = 7
	maximum = 58
Slowest packet = 1966
Flit latency average = 21.4615
	minimum = 7
	maximum = 58
Slowest flit = 1966
Fragmentation average = 0
	minimum = 0
	maximum = 0
Injected packet rate average = 0.01075
	minimum = 0.007 (at node 10)
	maximum = 0.015 (at node 2)
Accepted packet rate average = 0.0105625
	minimum = 0.007 (at node 10)
	maximum = 0.014 (at node 7)
Injected flit rate average = 0.01075
	minimum = 0.007 (at node 10)
	maximum = 0.015 (at node 2)
Accepted flit rate average= 0.0105625
	minimum = 0.007 (at node 10)
	maximum = 0.014 (at node 7)
Injected packet length average = 1
Accepted packet length average = 1
Total in-flight flits = 3 (0 measured)
latency change    = 0.0611452
throughput change = 0.00591716
Class 0:
Packet latency average = 21.6588
	minimum = 7
	maximum = 50
Network latency average = 21.6588
	minimum = 7
	maximum = 50
Slowest packet = 2137
Flit latency average = 21.6588
	minimum = 7
	maximum = 50
Slowest flit = 2137
Fragmentation average = 0
	minimum = 0
	maximum = 0
Injected packet rate average = 0.010875
	minimum = 0.002 (at node 14)
	maximum = 0.018 (at node 13)
Accepted packet rate average = 0.010625
	minimum = 0.002 (at node 11)
	maximum = 0.02 (at node 3)
Injected flit rate average = 0.010875
	minimum = 0.002 (at node 14)
	maximum = 0.018 (at node 13)
Accepted flit rate average= 0.010625
	minimum = 0.002 (at node 11)
	maximum = 0.02 (at node 3)
Injected packet length average = 1
Accepted packet length average = 1
Total in-flight flits = 5 (0 measured)
latency change    = 0.00910876
throughput change = 0.00588235
Warmed up ...Time used is 1500 cycles
Class 0:
Packet latency average = 19.125
	minimum = 7
	maximum = 51
Network latency average = 19.125
	minimum = 7
	maximum = 51
Slowest packet = 2194
Flit latency average = 19.971
	minimum = 7
	maximum = 54
Slowest flit = 2184
Fragmentation average = 0
	minimum = 0
	maximum = 0
Injected packet rate average = 0.00825
	minimum = 0.004 (at node 2)
	maximum = 0.012 (at node 15)
Accepted packet rate average = 0.008625
	minimum = 0.004 (at node 7)
	maximum = 0.012 (at node 13)
Injected flit rate average = 0.00825
	minimum = 0.004 (at node 2)
	maximum = 0.012 (at node 15)
Accepted flit rate average= 0.008625
	minimum = 0.004 (at node 7)
	maximum = 0.012 (at node 13)
Injected packet length average = 1
Accepted packet length average = 1
Total in-flight flits = 2 (2 measured)
latency change    = 0.132488
throughput change = 0.231884
Class 0:
Packet latency average = 19.7762
	minimum = 7
	maximum = 51
Network latency average = 19.7762
	minimum = 7
	maximum = 51
Slowest packet = 2194
Flit latency average = 20.1486
	minimum = 7
	maximum = 54
Slowest flit = 2184
Fragmentation average = 0
	minimum = 0
	maximum = 0
Injected packet rate average = 0.009125
	minimum = 0.007 (at node 1)
	maximum = 0.012 (at node 0)
Accepted packet rate average = 0.00925
	minimum = 0.007 (at node 3)
	maximum = 0.012 (at node 0)
Injected flit rate average = 0.009125
	minimum = 0.007 (at node 1)
	maximum = 0.012 (at node 0)
Accepted flit rate average= 0.00925
	minimum = 0.007 (at node 3)
	maximum = 0.012 (at node 0)
Injected packet length average = 1
Accepted packet length average = 1
Total in-flight flits = 3 (3 measured)
latency change    = 0.0329296
throughput change = 0.0675676
Class 0:
Packet latency average = 19.6372
	minimum = 7
	maximum = 51
Network latency average = 19.6372
	minimum = 7
	maximum = 51
Slowest packet = 2194
Flit latency average = 19.8909
	minimum = 7
	maximum = 54
Slowest flit = 2184
Fragmentation average = 0
	minimum = 0
	maximum = 0
Injected packet rate average = 0.00904167
	minimum = 0.006 (at node 12)
	maximum = 0.012 (at node 11)
Accepted packet rate average = 0.00916667
	minimum = 0.006 (at node 3)
	maximum = 0.012 (at node 13)
Injected flit rate average = 0.00904167
	minimum = 0.006 (at node 12)
	maximum = 0.012 (at node 11)
Accepted flit rate average= 0.00916667
	minimum = 0.006 (at node 3)
	maximum = 0.012 (at node 13)
Injected packet length average = 1
Accepted packet length average = 1
Total in-flight flits = 2 (2 measured)
latency change    = 0.00707914
throughput change = 0.00909091
Class 0:
Packet latency average = 19.4966
	minimum = 7
	maximum = 51
Network latency average = 19.4966
	minimum = 7
	maximum = 51
Slowest packet = 2194
Flit latency average = 19.6844
	minimum = 7
	maximum = 54
Slowest flit = 2184
Fragmentation average = 0
	minimum = 0
	maximum = 0
Injected packet rate average = 0.00928125
	minimum = 0.006 (at node 3)
	maximum = 0.0115 (at node 5)
Accepted packet rate average = 0.00940625
	minimum = 0.0065 (at node 12)
	maximum = 0.012 (at node 13)
Injected flit rate average = 0.00928125
	minimum = 0.006 (at node 3)
	maximum = 0.0115 (at node 5)
Accepted flit rate average= 0.00940625
	minimum = 0.0065 (at node 12)
	maximum = 0.012 (at node 13)
Injected packet length average = 1
Accepted packet length average = 1
Total in-flight flits = 1 (1 measured)
latency change    = 0.00721087
throughput change = 0.0254707
Class 0:
Packet latency average = 19.9286
	minimum = 7
	maximum = 57
Network latency average = 19.9286
	minimum = 7
	maximum = 57
Slowest packet = 2543
Flit latency average = 20.0705
	minimum = 7
	maximum = 57
Slowest flit = 2543
Fragmentation average = 0
	minimum = 0
	maximum = 0
Injected packet rate average = 0.009525
	minimum = 0.0068 (at node 3)
	maximum = 0.012 (at node 5)
Accepted packet rate average = 0.009575
	minimum = 0.0068 (at node 12)
	maximum = 0.012 (at node 5)
Injected flit rate average = 0.009525
	minimum = 0.0068 (at node 3)
	maximum = 0.012 (at node 5)
Accepted flit rate average= 0.009575
	minimum = 0.0068 (at node 12)
	maximum = 0.012 (at node 5)
Injected packet length average = 1
Accepted packet length average = 1
Total in-flight flits = 3 (3 measured)
latency change    = 0.0216749
throughput change = 0.017624
Draining all recorded packets ...
Draining remaining packets ...
Time taken is 4045 cycles
Class 0:
Packet latency average = 19.8481
	minimum = 7
	maximum = 47
Network latency average = 19.8481
	minimum = 7
	maximum = 47
Slowest packet = 2583
Flit latency average = 19.8481
	minimum = 7
	maximum = 47
Slowest flit = 2583
Fragmentation average = 0
	minimum = 0
	maximum = 0
Injected packet rate average = 0.01
	minimum = 0.004 (at node 11)
	maximum = 0.018 (at node 4)
Accepted packet rate average = 0.009875
	minimum = 0.004 (at node 14)
	maximum = 0.018 (at node 1)
Injected flit rate average = 0.01
	minimum = 0.004 (at node 11)
	maximum = 0.018 (at node 4)
Accepted flit rate average= 0.009875
	minimum = 0.004 (at node 14)
	maximum = 0.018 (at node 1)
Injected packet length average = 1
Accepted packet length average = 1
Total in-flight flits = 1 (0 measured)
latency change    = 1
throughput change = 1
Class 0:
Packet latency average = 21.2778
	minimum = 7
	maximum = 55
Network latency average = 21.2778
	minimum = 7
	maximum = 55
Slowest packet = 2729
Flit latency average = 21.2778
	minimum = 7
	maximum = 55
Slowest flit = 2729
Fragmentation average = 0
	minimum = 0
	maximum = 0
Injected packet rate average = 0.01025
	minimum = 0.005 (at node 7)
	maximum = 0.014 (at node 0)
Accepted packet rate average = 0.010125
	minimum = 0.005 (at node 13)
	maximum = 0.014 (at node 0)
Injected flit rate average = 0.01025
	minimum = 0.005 (at node 7)
	maximum = 0.014 (at node 0)
Accepted flit rate average= 0.010125
	minimum = 0.005 (at node 13)
	maximum = 0.014 (at node 0)
Injected packet length average = 1
Accepted packet length average = 1
Total in-flight flits = 2 (0 measured)
latency change    = 0.0671911
throughput change = 0.0246914
Class 0:
Packet latency average = 19.2222
	minimum = 7
	maximum = 47
Network latency average = 19.2222
	minimum = 7
	maximum = 47
Slowest packet = 2753
Flit latency average = 19.2222
	minimum = 7
	maximum = 47
Slowest flit = 2753
Fragmentation average = 0
	minimum = 0
	maximum = 0
Injected packet rate average = 0.008375
	minimum = 0.002 (at node 2)
	maximum = 0.016 (at node 11)
Accepted packet rate average = 0.007875
	minimum = 0.002 (at node 8)
	maximum = 0.016 (at node 14)
Injected flit rate average = 0.008375
	minimum = 0.002 (at node 2)
	maximum = 0.016 (at node 11)
Accepted flit rate average= 0.007875
	minimum = 0.002 (at node 8)
	maximum = 0.016 (at node 14)
Injected packet length average = 1
Accepted packet length average = 1
Total in-flight flits = 6 (0 measured)
latency change    = 0.106936
throughput change = 0.285714
Warmed up ...Time used is 1500 cycles
Class 0:
Packet latency average = 21.4861
	minimum = 7
	maximum = 47
Network latency average = 21.4861
	minimum = 7
	maximum = 47
Slowest packet = 2817
Flit latency average = 21.8462
	minimum = 7
	maximum = 47
Slowest flit = 2817
Fragmentation average = 0
	minimum = 0
	maximum = 0
Injected packet rate average = 0.009
	minimum = 0 (at node 10)
	maximum = 0.018 (at node 13)
Accepted packet rate average = 0.00975
	minimum = 0 (at node 10)
	maximum = 0.02 (at node 7)
Injected flit rate average = 0.009
	minimum = 0 (at node 10)
	maximum = 0.018 (at node 13)
Accepted flit rate average= 0.00975
	minimum = 0 (at node 10)
	maximum = 0.02 (at node 7)
Injected packet length average = 1
Accepted packet length average = 1
Total in-flight flits = 0 (0 measured)
latency change    = 0.105365
throughput change = 0.192308
Class 0:
Packet latency average = 21.1962
	minimum = 7
	maximum = 47
Network latency average = 21.1962
	minimum = 7
	maximum = 47
Slowest packet = 2817
Flit latency average = 21.378
	minimum = 7
	maximum = 47
Slowest flit = 2817
Fragmentation average = 0
	minimum = 0
	maximum = 0
Injected packet rate average = 0.0101875
	minimum = 0.004 (at node 9)
	maximum = 0.015 (at node 8)
Accepted packet rate average = 0.01025
	minimum = 0.004 (at node 6)
	maximum = 0.015 (at node 2)
Injected flit rate average = 0.0101875
	minimum = 0.004 (at node 9)
	maximum = 0.015 (at node 8)
Accepted flit rate average= 0.01025
	minimum = 0.004 (at node 6)
	maximum = 0.015 (at node 2)
Injected packet length average = 1
Accepted packet length average = 1
Total in-flight flits = 5 (5 measured)
latency change    = 0.0136774
throughput change = 0.0487805
Class 0:
Packet latency average = 20.5625
	minimum = 7
	maximum = 47
Network latency average = 20.5625
	minimum = 7
	maximum = 47
Slowest packet = 2817
Flit latency average = 20.7087
	minimum = 7
	maximum = 47
Slowest flit = 2817
Fragmentation average = 0
	minimum = 0
	maximum = 0
Injected packet rate average = 0.00941667
	minimum = 0.00266667 (at node 9)
	maximum = 0.0146667 (at node 11)
Accepted packet rate average = 0.00958333
	minimum = 0.00266667 (at node 6)
	maximum = 0.0146667 (at node 14)
Injected flit rate average = 0.00941667
	minimum = 0.00266667 (at node 9)
	maximum = 0.0146667 (at node 11)
Accepted flit rate average= 0.00958333
	minimum = 0.00266667 (at node 6)
	maximum = 0.0146667 (at node 14)
Injected packet length average = 1
Accepted packet length average = 1
Total in-flight flits = 2 (2 measured)
latency change    = 0.0308184
throughput change = 0.0695652
Class 0:
Packet latency average = 21.0201
	minimum = 7
	maximum = 52
Network latency average = 21.0201
	minimum = 7
	maximum = 52
Slowest packet = 3075
Flit latency average = 21.1213
	minimum = 7
	maximum = 52
Slowest flit = 3075
Fragmentation average = 0
	minimum = 0
	maximum = 0
Injected packet rate average = 0.0095
	minimum = 0.0045 (at node 9)
	maximum = 0.014 (at node 11)
Accepted packet rate average = 0.00953125
	minimum = 0.0045 (at node 6)
	maximum = 0.013 (at node 14)
Injected flit rate average = 0.0095
	minimum = 0.0045 (at node 9)
	maximum = 0.014 (at node 11)
Accepted flit rate average= 0.00953125
	minimum = 0.0045 (at node 6)
	maximum = 0.013 (at node 14)
Injected packet length average = 1
Accepted packet length average = 1
Total in-flight flits = 5 (5 measured)
latency change    = 0.0217681
throughput change = 0.00546448
Class 0:
Packet latency average = 21.3614
	minimum = 7
	maximum = 63
Network latency average = 21.3614
	minimum = 7
	maximum = 63
Slowest packet = 3135
Flit latency average = 21.4385
	minimum = 7
	maximum = 63
Slowest flit = 3135
Fragmentation average = 0
	minimum = 0
	maximum = 0
Injected packet rate average = 0.009275
	minimum = 0.0048 (at node 9)
	maximum = 0.0132 (at node 11)
Accepted packet rate average = 0.00935
	minimum = 0.0048 (at node 6)
	maximum = 0.0132 (at node 14)
Injected flit rate average = 0.009275
	minimum = 0.0048 (at node 9)
	maximum = 0.0132 (at node 11)
Accepted flit rate average= 0.00935
	minimum = 0.0048 (at node 6)
	maximum = 0.0132 (at node 14)
Injected packet length average = 1
Accepted packet length average = 1
Total in-flight flits = 3 (3 measured)
latency change    = 0.0159796
throughput change = 0.019385
Class 0:
Packet latency average = 21.3906
	minimum = 7
	maximum = 63
Network latency average = 21.3906
	minimum = 7
	maximum = 63
Slowest packet = 3135
Flit latency average = 21.4537
	minimum = 7
	maximum = 63
Slowest flit = 3135
Fragmentation average = 0
	minimum = 0
	maximum = 0
Injected packet rate average = 0.0094375
	minimum = 0.00633333 (at node 2)
	maximum = 0.0116667 (at node 7)
Accepted packet rate average = 0.00945833
	minimum = 0.00633333 (at node 6)
	maximum = 0.0116667 (at node 2)
Injected flit rate average = 0.0094375
	minimum = 0.00633333 (at node 2)
	maximum = 0.0116667 (at node 7)
Accepted flit rate average= 0.00945833
	minimum = 0.00633333 (at node 6)
	maximum = 0.0116667 (at node 2)
Injected packet length average = 1
Accepted packet length average = 1
Total in-flight flits = 5 (5 measured)
latency change    = 0.00136564
throughput change = 0.0114537
Draining all recorded packets ...
Draining remaining packets ...
Time taken is 4560 cycles
Class 0:
Packet latency average = 21.2933
	minimum = 7
	maximum = 47
Network latency average = 21.2933
	minimum = 7
	maximum = 47
Slowest packet = 3279
Flit latency average = 21.2933
	minimum = 7
	maximum = 47
Slowest flit = 3279
Fragmentation average = 0
	minimum = 0
	maximum = 0
Injected packet rate average = 0.009625
	minimum = 0.002 (at node 5)
	maximum = 0.016 (at node 7)
Accepted packet rate average = 0.009375
	minimum = 0.002 (at node 5)
	maximum = 0.016 (at node 2)
Injected flit rate average = 0.009625
	minimum = 0.002 (at node 5)
	maximum = 0.016 (at node 7)
Accepted flit rate average= 0.009375
	minimum = 0.002 (at node 5)
	maximum = 0.016 (at node 2)
Injected packet length average = 1
Accepted packet length average = 1
Total in-flight flits = 2 (0 measured)
latency change    = 1
throughput change = 1
Class 0:
Packet latency average = 21.6564
	minimum = 7
	maximum = 53
Network latency average = 21.6564
	minimum = 7
	maximum = 53
Slowest packet = 3373
Flit latency average = 21.6564
	minimum = 7
	maximum = 53
Slowest flit = 3373
Fragmentation average = 0
	minimum = 0
	maximum = 0
Injected packet rate average = 0.010375
	minimum = 0.005 (at node 2)
	maximum = 0.017 (at node 12)
Accepted packet rate average = 0.0101875
	minimum = 0.005 (at node 5)
	maximum = 0.017 (at node 3)
Injected flit rate average = 0.010375
	minimum = 0.005 (at node 2)
	maximum = 0.017 (at node 12)
Accepted flit rate average= 0.0101875
	minimum = 0.005 (at node 5)
	maximum = 0.017 (at node 3)
Injected packet length average = 1
Accepted packet length average = 1
Total in-flight flits = 3 (0 measured)
latency change    = 0.0167668
throughput change = 0.0797546
Class 0:
Packet latency average = 18.9101
	minimum = 7
	maximum = 47
Network latency average = 18.9101
	minimum = 7
	maximum = 47
Slowest packet = 3418
Flit latency average = 18.9101
	minimum = 7
	maximum = 47
Slowest flit = 3418
Fragmentation average = 0
	minimum = 0
	maximum = 0
Injected packet rate average = 0.011625
	minimum = 0.002 (at node 1)
	maximum = 0.024 (at node 14)
Accepted packet rate average = 0.011125
	minimum = 0.002 (at node 2)
	maximum = 0.02 (at node 11)
Injected flit rate average = 0.011625
	minimum = 0.002 (at node 1)
	maximum = 0.024 (at node 14)
Accepted flit rate average= 0.011125
	minimum = 0.002 (at node 2)
	maximum = 0.02 (at node 11)
Injected packet length average = 1
Accepted packet length average = 1
Total in-flight flits = 7 (0 measured)
latency change    = 0.145231
throughput change = 0.0842697
Warmed up ...Time used is 1500 cycles
Class 0:
Packet latency average = 18.8
	minimum = 7
	maximum = 52
Network latency average = 18.8
	minimum = 7
	maximum = 52
Slowest packet = 3537
Flit latency average = 19.7439
	minimum = 7
	maximum = 52
Slowest flit = 3537
Fragmentation average = 0
	minimum = 0
	maximum = 0
Injected packet rate average = 0.00975
	minimum = 0.004 (at node 12)
	maximum = 0.018 (at node 14)
Accepted packet rate average = 0.01025
	minimum = 0.004 (at node 3)
	maximum = 0.022 (at node 11)
Injected flit rate average = 0.00975
	minimum = 0.004 (at node 12)
	maximum = 0.018 (at node 14)
Accepted flit rate average= 0.01025
	minimum = 0.004 (at node 3)
	maximum = 0.022 (at node 11)
Injected packet length average = 1
Accepted packet length average = 1
Total in-flight flits = 3 (3 measured)
latency change    = 0.00585704
throughput change = 0.0853659
Class 0:
Packet latency average = 18.6194
	minimum = 7
	maximum = 52
Network latency average = 18.6194
	minimum = 7
	maximum = 52
Slowest packet = 3537
Flit latency average = 19.1773
	minimum = 7
	maximum = 52
Slowest flit = 3537
Fragmentation average = 0
	minimum = 0
	maximum = 0
Injected packet rate average = 0.0084375
	minimum = 0.004 (at node 2)
	maximum = 0.013 (at node 11)
Accepted packet rate average = 0.0088125
	minimum = 0.005 (at node 2)
	maximum = 0.012 (at node 5)
Injected flit rate average = 0.0084375
	minimum = 0.004 (at node 2)
	maximum = 0.013 (at node 11)
Accepted flit rate average= 0.0088125
	minimum = 0.005 (at node 2)
	maximum = 0.012 (at node 5)
Injected packet length average = 1
Accepted packet length average = 1
Total in-flight flits = 1 (1 measured)
latency change    = 0.0096994
throughput change = 0.163121
Class 0:
Packet latency average = 18.8235
	minimum = 7
	maximum = 52
Network latency average = 18.8235
	minimum = 7
	maximum = 52
Slowest packet = 3537
Flit latency average = 19.1896
	minimum = 7
	maximum = 52
Slowest flit = 3537
Fragmentation average = 0
	minimum = 0
	maximum = 0
Injected packet rate average = 0.00866667
	minimum = 0.004 (at node 2)
	maximum = 0.016 (at node 11)
Accepted packet rate average = 0.00879167
	minimum = 0.00466667 (at node 8)
	maximum = 0.016 (at node 14)
Injected flit rate average = 0.00866667
	minimum = 0.004 (at node 2)
	maximum = 0.016 (at node 11)
Accepted flit rate average= 0.00879167
	minimum = 0.00466667 (at node 8)
	maximum = 0.016 (at node 14)
Injected packet length average = 1
Accepted packet length average = 1
Total in-flight flits = 4 (4 measured)
latency change    = 0.0108442
throughput change = 0.00236967
Class 0:
Packet latency average = 19.2816
	minimum = 7
	maximum = 52
Network latency average = 19.2816
	minimum = 7
	maximum = 52
Slowest packet = 3537
Flit latency average = 19.5423
	minimum = 7
	maximum = 52
Slowest flit = 3537
Fragmentation average = 0
	minimum = 0
	maximum = 0
Injected packet rate average = 0.00884375
	minimum = 0.005 (at node 2)
	maximum = 0.015 (at node 11)
Accepted packet rate average = 0.008875
	minimum = 0.005 (at node 8)
	maximum = 0.0145 (at node 14)
Injected flit rate average = 0.00884375
	minimum = 0.005 (at node 2)
	maximum = 0.015 (at node 11)
Accepted flit rate average= 0.008875
	minimum = 0.005 (at node 8)
	maximum = 0.0145 (at node 14)
Injected packet length average = 1
Accepted packet length average = 1
Total in-flight flits = 6 (6 measured)
latency change    = 0.0237563
throughput change = 0.00938967
Class 0:
Packet latency average = 19.6348
	minimum = 7
	maximum = 52
Network latency average = 19.6348
	minimum = 7
	maximum = 52
Slowest packet = 3537
Flit latency average = 19.832
	minimum = 7
	maximum = 52
Slowest flit = 3537
Fragmentation average = 0
	minimum = 0
	maximum = 0
Injected packet rate average = 0.008975
	minimum = 0.0056 (at node 2)
	maximum = 0.0144 (at node 11)
Accepted packet rate average = 0.009075
	minimum = 0.006 (at node 8)
	maximum = 0.0144 (at node 14)
Injected flit rate average = 0.008975
	minimum = 0.0056 (at node 2)
	maximum = 0.0144 (at node 11)
Accepted flit rate average= 0.009075
	minimum = 0.006 (at node 8)
	maximum = 0.0144 (at node 14)
Injected packet length average = 1
Accepted packet length average = 1
Total in-flight flits = 3 (3 measured)
latency change    = 0.0179906
throughput change = 0.0220386
Draining all recorded packets ...
Draining remaining packets ...
Time taken is 4077 cycles
Class 0:
Packet latency average = 19.8971
	minimum = 7
	maximum = 54
Network latency average = 19.8971
	minimum = 7
	maximum = 54
Slowest packet = 3946
Flit latency average = 19.8971
	minimum = 7
	maximum = 54
Slowest flit = 3946
Fragmentation average = 0
	minimum = 0
	maximum = 0
Injected packet rate average = 0.009
	minimum = 0.002 (at node 10)
	maximum = 0.016 (at node 13)
Accepted packet rate average = 0.0085
	minimum = 0.002 (at node 10)
	maximum = 0.014 (at node 7)
Injected flit rate average = 0.009
	minimum = 0.002 (at node 10)
	maximum = 0.016 (at node 13)
Accepted flit rate average= 0.0085
	minimum = 0.002 (at node 10)
	maximum = 0.014 (at node 7)
Injected packet length average = 1
Accepted packet length average = 1
Total in-flight flits = 4 (0 measured)
latency change    = 1
throughput change = 1
Class 0:
Packet latency average = 21.1737
	minimum = 7
	maximum = 56
Network latency average = 21.1737
	minimum = 7
	maximum = 56
Slowest packet = 4003
Flit latency average = 21.1737
	minimum = 7
	maximum = 56
Slowest flit = 4003
Fragmentation average = 0
	minimum = 0
	maximum = 0
Injected packet rate average = 0.010625
	minimum = 0.004 (at node 12)
	maximum = 0.017 (at node 11)
Accepted packet rate average = 0.0104375
	minimum = 0.004 (at node 3)
	maximum = 0.017 (at node 14)
Injected flit rate average = 0.010625
	minimum = 0.004 (at node 12)
	maximum = 0.017 (at node 11)
Accepted flit rate average= 0.0104375
	minimum = 0.004 (at node 3)
	maximum = 0.017 (at node 14)
Injected packet length average = 1
Accepted packet length average = 1
Total in-flight flits = 3 (0 measured)
latency change    = 0.0602916
throughput change = 0.185629
Class 0:
Packet latency average = 20.5287
	minimum = 7
	maximum = 54
Network latency average = 20.5287
	minimum = 7
	maximum = 54
Slowest packet = 4039
Flit latency average = 20.5287
	minimum = 7
	maximum = 54
Slowest flit = 4039
Fragmentation average = 0
	minimum = 0
	maximum = 0
Injected packet rate average = 0.010625
	minimum = 0.004 (at node 14)
	maximum = 0.022 (at node 0)
Accepted packet rate average = 0.010875
	minimum = 0.004 (at node 11)
	maximum = 0.022 (at node 0)
Injected flit rate average = 0.010625
	minimum = 0.004 (at node 14)
	maximum = 0.022 (at node 0)
Accepted flit rate average= 0.010875
	minimum = 0.004 (at node 11)
	maximum = 0.022 (at node 0)
Injected packet length average = 1
Accepted packet length average = 1
Total in-flight flits = 1 (0 measured)
latency change    = 0.0314153
throughput change = 0.0402299
Warmed up ...Time used is 1500 cycles
Class 0:
Packet latency average = 22.6935
	minimum = 7
	maximum = 54
Network latency average = 22.6935
	minimum = 7
	maximum = 54
Slowest packet = 4186
Flit latency average = 22.6032
	minimum = 7
	maximum = 54
Slowest flit = 4186
Fragmentation average = 0
	minimum = 0
	maximum = 0
Injected packet rate average = 0.008625
	minimum = 0.002 (at node 6)
	maximum = 0.016 (at node 3)
Accepted packet rate average = 0.007875
	minimum = 0.002 (at node 9)
	maximum = 0.012 (at node 3)
Injected flit rate average = 0.008625
	minimum = 0.002 (at node 6)
	maximum = 0.016 (at node 3)
Accepted flit rate average= 0.007875
	minimum = 0.002 (at node 9)
	maximum = 0.012 (at node 3)
Injected packet length average = 1
Accepted packet length average = 1
Total in-flight flits = 7 (7 measured)
latency change    = 0.0953933
throughput change = 0.380952
Class 0:
Packet latency average = 21.745
	minimum = 7
	maximum = 54
Network latency average = 21.745
	minimum = 7
	maximum = 54
Slowest packet = 4186
Flit latency average = 21.7133
	minimum = 7
	maximum = 54
Slowest flit = 4186
Fragmentation average = 0
	minimum = 0
	maximum = 0
Injected packet rate average = 0.0096875
	minimum = 0.005 (at node 7)
	maximum = 0.014 (at node 8)
Accepted packet rate average = 0.009375
	minimum = 0.005 (at node 13)
	maximum = 0.013 (at node 2)
Injected flit rate average = 0.0096875
	minimum = 0.005 (at node 7)
	maximum = 0.014 (at node 8)
Accepted flit rate average= 0.009375
	minimum = 0.005 (at node 13)
	maximum = 0.013 (at node 2)
Injected packet length average = 1
Accepted packet length average = 1
Total in-flight flits = 6 (6 measured)
latency change    = 0.0436231
throughput change = 0.16
Class 0:
Packet latency average = 21.6288
	minimum = 7
	maximum = 54
Network latency average = 21.6288
	minimum = 7
	maximum = 54
Slowest packet = 4186
Flit latency average = 21.6087
	minimum = 7
	maximum = 54
Slowest flit = 4186
Fragmentation average = 0
	minimum = 0
	maximum = 0
Injected packet rate average = 0.009625
	minimum = 0.006 (at node 7)
	maximum = 0.0153333 (at node 8)
Accepted packet rate average = 0.00958333
	minimum = 0.006 (at node 13)
	maximum = 0.0153333 (at node 2)
Injected flit rate average = 0.009625
	minimum = 0.006 (at node 7)
	maximum = 0.0153333 (at node 8)
Accepted flit rate average= 0.00958333
	minimum = 0.006 (at node 13)
	maximum = 0.0153333 (at node 2)
Injected packet length average = 1
Accepted packet length average = 1
Total in-flight flits = 2 (2 measured)
latency change    = 0.00536994
throughput change = 0.0217391
Class 0:
Packet latency average = 21.4837
	minimum = 7
	maximum = 54
Network latency average = 21.4837
	minimum = 7
	maximum = 54
Slowest packet = 4186
Flit latency average = 21.4691
	minimum = 7
	maximum = 54
Slowest flit = 4186
Fragmentation average = 0
	minimum = 0
	maximum = 0
Injected packet rate average = 0.009625
	minimum = 0.006 (at node 7)
	maximum = 0.013 (at node 8)
Accepted packet rate average = 0.00959375
	minimum = 0.006 (at node 13)
	maximum = 0.013 (at node 2)
Injected flit rate average = 0.009625
	minimum = 0.006 (at node 7)
	maximum = 0.013 (at node 8)
Accepted flit rate average= 0.00959375
	minimum = 0.006 (at node 13)
	maximum = 0.013 (at node 2)
Injected packet length average = 1
Accepted packet length average = 1
Total in-flight flits = 2 (2 measured)
latency change    = 0.0067568
throughput change = 0.00108578
Class 0:
Packet latency average = 21.1041
	minimum = 7
	maximum = 54
Network latency average = 21.1041
	minimum = 7
	maximum = 54
Slowest packet = 4186
Flit latency average = 21.0937
	minimum = 7
	maximum = 54
Slowest flit = 4186
Fragmentation average = 0
	minimum = 0
	maximum = 0
Injected packet rate average = 0.00985
	minimum = 0.0064 (at node 7)
	maximum = 0.0156 (at node 8)
Accepted packet rate average = 0.009875
	minimum = 0.0064 (at node 13)
	maximum = 0.0156 (at node 2)
Injected flit rate average = 0.00985
	minimum = 0.0064 (at node 7)
	maximum = 0.0156 (at node 8)
Accepted flit rate average= 0.009875
	minimum = 0.0064 (at node 13)
	maximum = 0.0156 (at node 2)
Injected packet length average = 1
Accepted packet length average = 1
Total in-flight flits = 0 (0 measured)
latency change    = 0.017987
throughput change = 0.028481
Draining all recorded packets ...
Draining remaining packets ...
Time taken is 4001 cycles
Class 0:
Packet latency average = 18.6145
	minimum = 7
	maximum = 50
Network latency average = 18.6145
	minimum = 7
	maximum = 50
Slowest packet = 4599
Flit latency average = 18.6145
	minimum = 7
	maximum = 50
Slowest flit = 4599
Fragmentation average = 0
	minimum = 0
	maximum = 0
Injected packet rate average = 0.010875
	minimum = 0.004 (at node 2)
	maximum = 0.024 (at node 5)
Accepted packet rate average = 0.010375
	minimum = 0.004 (at node 8)
	maximum = 0.022 (at node 5)
Injected flit rate average = 0.010875
	minimum = 0.004 (at node 2)
	maximum = 0.024 (at node 5)
Accepted flit rate average= 0.010375
	minimum = 0.004 (at node 8)
	maximum = 0.022 (at node 5)
Injected packet length average = 1
Accepted packet length average = 1
Total in-flight flits = 4 (0 measured)
latency change    = 1
throughput change = 1
Class 0:
Packet latency average = 20.2428
	minimum = 7
	maximum = 54
Network latency average = 20.2428
	minimum = 7
	maximum = 54
Slowest packet = 4616
Flit latency average = 20.2428
	minimum = 7
	maximum = 54
Slowest flit = 4616
Fragmentation average = 0
	minimum = 0
	maximum = 0
Injected packet rate average = 0.011
	minimum = 0.006 (at node 1)
	maximum = 0.021 (at node 5)
Accepted packet rate average = 0.0108125
	minimum = 0.006 (at node 4)
	maximum = 0.021 (at node 5)
Injected flit rate average = 0.011
	minimum = 0.006 (at node 1)
	maximum = 0.021 (at node 5)
Accepted flit rate average= 0.0108125
	minimum = 0.006 (at node 4)
	maximum = 0.021 (at node 5)
Injected packet length average = 1
Accepted packet length average = 1
Total in-flight flits = 3 (0 measured)
latency change    = 0.0804394
throughput change = 0.0404624
Class 0:
Packet latency average = 23.6769
	minimum = 7
	maximum = 56
Network latency average = 23.6769
	minimum = 7
	maximum = 56
Slowest packet = 4724
Flit latency average = 23.6769
	minimum = 7
	maximum = 56
Slowest flit = 4724
Fragmentation average = 0
	minimum = 0
	maximum = 0
Injected packet rate average = 0.008125
	minimum = 0.002 (at node 5)
	maximum = 0.012 (at node 2)
Accepted packet rate average = 0.008125
	minimum = 0.002 (at node 5)
	maximum = 0.014 (at node 3)
Injected flit rate average = 0.008125
	minimum = 0.002 (at node 5)
	maximum = 0.012 (at node 2)
Accepted flit rate average= 0.008125
	minimum = 0.002 (at node 5)
	maximum = 0.014 (at node 3)
Injected packet length average = 1
Accepted packet length average = 1
Total in-flight flits = 3 (0 measured)
latency change    = 0.145042
throughput change = 0.330769
Warmed up ...Time used is 1500 cycles
Class 0:
Packet latency average = 16.7857
	minimum = 7
	maximum = 37
Network latency average = 16.7857
	minimum = 7
	maximum = 37
Slowest packet = 4779
Flit latency average = 17.4795
	minimum = 7
	maximum = 47
Slowest flit = 4769
Fragmentation average = 0
	minimum = 0
	maximum = 0
Injected packet rate average = 0.009625
	minimum = 0.002 (at node 3)
	maximum = 0.02 (at node 15)
Accepted packet rate average = 0.009125
	minimum = 0.002 (at node 3)
	maximum = 0.018 (at node 15)
Injected flit rate average = 0.009625
	minimum = 0.002 (at node 3)
	maximum = 0.02 (at node 15)
Accepted flit rate average= 0.009125
	minimum = 0.002 (at node 3)
	maximum = 0.018 (at node 15)
Injected packet length average = 1
Accepted packet length average = 1
Total in-flight flits = 7 (7 measured)
latency change    = 0.41054
throughput change = 0.109589
Class 0:
Packet latency average = 17.882
	minimum = 7
	maximum = 54
Network latency average = 17.882
	minimum = 7
	maximum = 54
Slowest packet = 4851
Flit latency average = 18.1707
	minimum = 7
	maximum = 54
Slowest flit = 4851
Fragmentation average = 0
	minimum = 0
	maximum = 0
Injected packet rate average = 0.0100625
	minimum = 0.004 (at node 3)
	maximum = 0.018 (at node 0)
Accepted packet rate average = 0.01025
	minimum = 0.004 (at node 6)
	maximum = 0.018 (at node 0)
Injected flit rate average = 0.0100625
	minimum = 0.004 (at node 3)
	maximum = 0.018 (at node 0)
Accepted flit rate average= 0.01025
	minimum = 0.004 (at node 6)
	maximum = 0.018 (at node 0)
Injected packet length average = 1
Accepted packet length average = 1
Total in-flight flits = 0 (0 measured)
latency change    = 0.061306
throughput change = 0.109756
Class 0:
Packet latency average = 18.8559
	minimum = 7
	maximum = 54
Network latency average = 18.8559
	minimum = 7
	maximum = 54
Slowest packet = 4851
Flit latency average = 19.0418
	minimum = 7
	maximum = 54
Slowest flit = 4851
Fragmentation average = 0
	minimum = 0
	maximum = 0
Injected packet rate average = 0.00995833
	minimum = 0.00533333 (at node 3)
	maximum = 0.0146667 (at node 10)
Accepted packet rate average = 0.00995833
	minimum = 0.006 (at node 9)
	maximum = 0.0146667 (at node 10)
Injected flit rate average = 0.00995833
	minimum = 0.00533333 (at node 3)
	maximum = 0.0146667 (at node 10)
Accepted flit rate average= 0.00995833
	minimum = 0.006 (at node 9)
	maximum = 0.0146667 (at node 10)
Injected packet length average = 1
Accepted packet length average = 1
Total in-flight flits = 3 (3 measured)
latency change    = 0.0516519
throughput change = 0.0292887
Class 0:
Packet latency average = 19.3834
	minimum = 7
	maximum = 56
Network latency average = 19.3834
	minimum = 7
	maximum = 56
Slowest packet = 5081
Flit latency average = 19.5137
	minimum = 7
	maximum = 56
Slowest flit = 5081
Fragmentation average = 0
	minimum = 0
	maximum = 0
Injected packet rate average = 0.010375
	minimum = 0.0075 (at node 3)
	maximum = 0.015 (at node 15)
Accepted packet rate average = 0.0102813
	minimum = 0.0075 (at node 9)
	maximum = 0.015 (at node 15)
Injected flit rate average = 0.010375
	minimum = 0.0075 (at node 3)
	maximum = 0.015 (at node 15)
Accepted flit rate average= 0.0102813
	minimum = 0.0075 (at node 9)
	maximum = 0.015 (at node 15)
Injected packet length average = 1
Accepted packet length average = 1
Total in-flight flits = 6 (6 measured)
latency change    = 0.0272141
throughput change = 0.0314083
Class 0:
Packet latency average = 19.7531
	minimum = 7
	maximum = 56
Network latency average = 19.7531
	minimum = 7
	maximum = 56
Slowest packet = 5081
Flit latency average = 19.8554
	minimum = 7
	maximum = 56
Slowest flit = 5081
Fragmentation average = 0
	minimum = 0
	maximum = 0
Injected packet rate average = 0.010225
	minimum = 0.0076 (at node 7)
	maximum = 0.014 (at node 15)
Accepted packet rate average = 0.0102
	minimum = 0.008 (at node 13)
	maximum = 0.014 (at node 15)
Injected flit rate average = 0.010225
	minimum = 0.0076 (at node 7)
	maximum = 0.014 (at node 15)
Accepted flit rate average= 0.0102
	minimum = 0.008 (at node 13)
	maximum = 0.014 (at node 15)
Injected packet length average = 1
Accepted packet length average = 1
Total in-flight flits = 4 (4 measured)
latency change    = 0.0187136
throughput change = 0.00796569
Class 0:
Packet latency average = 20.3523
	minimum = 7
	maximum = 56
Network latency average = 20.3523
	minimum = 7
	maximum = 56
Slowest packet = 5081
Flit latency average = 20.4361
	minimum = 7
	maximum = 56
Slowest flit = 5081
Fragmentation average = 0
	minimum = 0
	maximum = 0
Injected packet rate average = 0.00995833
	minimum = 0.00766667 (at node 6)
	maximum = 0.0126667 (at node 15)
Accepted packet rate average = 0.0099375
	minimum = 0.00766667 (at node 9)
	maximum = 0.0126667 (at node 15)
Injected flit rate average = 0.00995833
	minimum = 0.00766667 (at node 6)
	maximum = 0.0126667 (at node 15)
Accepted flit rate average= 0.0099375
	minimum = 0.00766667 (at node 9)
	maximum = 0.0126667 (at node 15)
Injected packet length average = 1
Accepted packet length average = 1
Total in-flight flits = 4 (4 measured)
latency change    = 0.029443
throughput change = 0.0264151
Draining all recorded packets ...
Draining remaining packets ...
Time taken is 4557 cycles
Class 0:
Packet latency average = 21.025
	minimum = 7
	maximum = 49
Network latency average = 21.025
	minimum = 7
	maximum = 49
Slowest packet = 5263
Flit latency average = 21.025
	minimum = 7
	maximum = 49
Slowest flit = 5263
Fragmentation average = 0
	minimum = 0
	maximum = 0
Injected packet rate average = 0.010625
	minimum = 0.004 (at node 1)
	maximum = 0.022 (at node 12)
Accepted packet rate average = 0.01
	minimum = 0.004 (at node 1)
	maximum = 0.018 (at node 2)
Injected flit rate average = 0.010625
	minimum = 0.004 (at node 1)
	maximum = 0.022 (at node 12)
Accepted flit rate average= 0.01
	minimum = 0.004 (at node 1)
	maximum = 0.018 (at node 2)
Injected packet length average = 1
Accepted packet length average = 1
Total in-flight flits = 5 (0 measured)
latency change    = 1
throughput change = 1
Class 0:
Packet latency average = 22.0784
	minimum = 7
	maximum = 49
Network latency average = 22.0784
	minimum = 7
	maximum = 49
Slowest packet = 5263
Flit latency average = 22.0784
	minimum = 7
	maximum = 49
Slowest flit = 5263
Fragmentation average = 0
	minimum = 0
	maximum = 0
Injected packet rate average = 0.0096875
	minimum = 0.005 (at node 1)
	maximum = 0.017 (at node 12)
Accepted packet rate average = 0.0095625
	minimum = 0.005 (at node 4)
	maximum = 0.017 (at node 3)
Injected flit rate average = 0.0096875
	minimum = 0.005 (at node 1)
	maximum = 0.017 (at node 12)
Accepted flit rate average= 0.0095625
	minimum = 0.005 (at node 4)
	maximum = 0.017 (at node 3)
Injected packet length average = 1
Accepted packet length average = 1
Total in-flight flits = 2 (0 measured)
latency change    = 0.0477131
throughput change = 0.0457516
Class 0:
Packet latency average = 22.4219
	minimum = 7
	maximum = 49
Network latency average = 22.4219
	minimum = 7
	maximum = 49
Slowest packet = 5421
Flit latency average = 22.4219
	minimum = 7
	maximum = 49
Slowest flit = 5421
Fragmentation average = 0
	minimum = 0
	maximum = 0
Injected packet rate average = 0.008125
	minimum = 0.004 (at node 10)
	maximum = 0.012 (at node 6)
Accepted packet rate average = 0.008
	minimum = 0.004 (at node 10)
	maximum = 0.014 (at node 6)
Injected flit rate average = 0.008125
	minimum = 0.004 (at node 10)
	maximum = 0.012 (at node 6)
Accepted flit rate average= 0.008
	minimum = 0.004 (at node 10)
	maximum = 0.014 (at node 6)
Injected packet length average = 1
Accepted packet length average = 1
Total in-flight flits = 3 (0 measured)
latency change    = 0.0153173
throughput change = 0.195312
Warmed up ...Time used is 1500 cycles
Class 0:
Packet latency average = 22.4459
	minimum = 7
	maximum = 47
Network latency average = 22.4459
	minimum = 7
	maximum = 47
Slowest packet = 5504
Flit latency average = 22.8961
	minimum = 7
	maximum = 47
Slowest flit = 5504
Fragmentation average = 0
	minimum = 0
	maximum = 0
Injected packet rate average = 0.009625
	minimum = 0.002 (at node 0)
	maximum = 0.018 (at node 4)
Accepted packet rate average = 0.009625
	minimum = 0.002 (at node 0)
	maximum = 0.018 (at node 1)
Injected flit rate average = 0.009625
	minimum = 0.002 (at node 0)
	maximum = 0.018 (at node 4)
Accepted flit rate average= 0.009625
	minimum = 0.002 (at node 0)
	maximum = 0.018 (at node 1)
Injected packet length average = 1
Accepted packet length average = 1
Total in-flight flits = 3 (3 measured)
latency change    = 0.0010724
throughput change = 0.168831
Class 0:
Packet latency average = 20.6871
	minimum = 7
	maximum = 55
Network latency average = 20.6871
	minimum = 7
	maximum = 55
Slowest packet = 5562
Flit latency average = 20.9533
	minimum = 7
	maximum = 55
Slowest flit = 5562
Fragmentation average = 0
	minimum = 0
	maximum = 0
Injected packet rate average = 0.009375
	minimum = 0.004 (at node 0)
	maximum = 0.014 (at node 8)
Accepted packet rate average = 0.009375
	minimum = 0.004 (at node 0)
	maximum = 0.014 (at node 7)
Injected flit rate average = 0.009375
	minimum = 0.004 (at node 0)
	maximum = 0.014 (at node 8)
Accepted flit rate average= 0.009375
	minimum = 0.004 (at node 0)
	maximum = 0.014 (at node 7)
Injected packet length average = 1
Accepted packet length average = 1
Total in-flight flits = 3 (3 measured)
latency change    = 0.0850227
throughput change = 0.0266667
Class 0:
Packet latency average = 20.645
	minimum = 7
	maximum = 55
Network latency average = 20.645
	minimum = 7
	maximum = 55
Slowest packet = 5562
Flit latency average = 20.8162
	minimum = 7
	maximum = 55
Slowest flit = 5562
Fragmentation average = 0
	minimum = 0
	maximum = 0
Injected packet rate average = 0.00979167
	minimum = 0.006 (at node 11)
	maximum = 0.0153333 (at node 6)
Accepted packet rate average = 0.00975
	minimum = 0.006 (at node 0)
	maximum = 0.0153333 (at node 9)
Injected flit rate average = 0.00979167
	minimum = 0.006 (at node 11)
	maximum = 0.0153333 (at node 6)
Accepted flit rate average= 0.00975
	minimum = 0.006 (at node 0)
	maximum = 0.0153333 (at node 9)
Injected packet length average = 1
Accepted packet length average = 1
Total in-flight flits = 4 (4 measured)
latency change    = 0.00203696
throughput change = 0.0384615
Class 0:
Packet latency average = 21.0596
	minimum = 7
	maximum = 55
Network latency average = 21.0596
	minimum = 7
	maximum = 55
Slowest packet = 5562
Flit latency average = 21.1869
	minimum = 7
	maximum = 55
Slowest flit = 5562
Fragmentation average = 0
	minimum = 0
	maximum = 0
Injected packet rate average = 0.0095
	minimum = 0.006 (at node 11)
	maximum = 0.0135 (at node 13)
Accepted packet rate average = 0.00953125
	minimum = 0.006 (at node 14)
	maximum = 0.014 (at node 7)
Injected flit rate average = 0.0095
	minimum = 0.006 (at node 11)
	maximum = 0.0135 (at node 13)
Accepted flit rate average= 0.00953125
	minimum = 0.006 (at node 14)
	maximum = 0.014 (at node 7)
Injected packet length average = 1
Accepted packet length average = 1
Total in-flight flits = 2 (2 measured)
latency change    = 0.0196861
throughput change = 0.0229508
Class 0:
Packet latency average = 21.0622
	minimum = 7
	maximum = 58
Network latency average = 21.0622
	minimum = 7
	maximum = 58
Slowest packet = 5832
Flit latency average = 21.162
	minimum = 7
	maximum = 58
Slowest flit = 5832
Fragmentation average = 0
	minimum = 0
	maximum = 0
Injected packet rate average = 0.00985
	minimum = 0.0056 (at node 11)
	maximum = 0.0132 (at node 13)
Accepted packet rate average = 0.009725
	minimum = 0.0056 (at node 14)
	maximum = 0.0132 (at node 7)
Injected flit rate average = 0.00985
	minimum = 0.0056 (at node 11)
	maximum = 0.0132 (at node 13)
Accepted flit rate average= 0.009725
	minimum = 0.0056 (at node 14)
	maximum = 0.0132 (at node 7)
Injected packet length average = 1
Accepted packet length average = 1
Total in-flight flits = 8 (8 measured)
latency change    = 0.000122187
throughput change = 0.0199229
Draining all recorded packets ...
Draining remaining packets ...
Time taken is 4045 cycles
Class 0:
Packet latency average = 22.8571
	minimum = 7
	maximum = 48
Network latency average = 22.8571
	minimum = 7
	maximum = 48
Slowest packet = 5897
Flit latency average = 22.8571
	minimum = 7
	maximum = 48
Slowest flit = 5897
Fragmentation average = 0
	minimum = 0
	maximum = 0
Injected packet rate average = 0.008125
	minimum = 0.002 (at node 9)
	maximum = 0.018 (at node 12)
Accepted packet rate average = 0.007875
	minimum = 0.002 (at node 6)
	maximum = 0.016 (at node 3)
Injected flit rate average = 0.008125
	minimum = 0.002 (at node 9)
	maximum = 0.018 (at node 12)
Accepted flit rate average= 0.007875
	minimum = 0.002 (at node 6)
	maximum = 0.016 (at node 3)
Injected packet length average = 1
Accepted packet length average = 1
Total in-flight flits = 2 (0 measured)
latency change    = 1
throughput change = 1
Class 0:
Packet latency average = 21.4161
	minimum = 7
	maximum = 50
Network latency average = 21.4161
	minimum = 7
	maximum = 50
Slowest packet = 5981
Flit latency average = 21.4161
	minimum = 7
	maximum = 50
Slowest flit = 5981
Fragmentation average = 0
	minimum = 0
	maximum = 0
Injected packet rate average = 0.0096875
	minimum = 0.004 (at node 9)
	maximum = 0.016 (at node 12)
Accepted packet rate average = 0.0093125
	minimum = 0.004 (at node 6)
	maximum = 0.015 (at node 3)
Injected flit rate average = 0.0096875
	minimum = 0.004 (at node 9)
	maximum = 0.016 (at node 12)
Accepted flit rate average= 0.0093125
	minimum = 0.004 (at node 6)
	maximum = 0.015 (at node 3)
Injected packet length average = 1
Accepted packet length average = 1
Total in-flight flits = 6 (0 measured)
latency change    = 0.0672875
throughput change = 0.154362
Class 0:
Packet latency average = 20.5918
	minimum = 7
	maximum = 53
Network latency average = 20.5918
	minimum = 7
	maximum = 53
Slowest packet = 6104
Flit latency average = 20.5918
	minimum = 7
	maximum = 53
Slowest flit = 6104
Fragmentation average = 0
	minimum = 0
	maximum = 0
Injected packet rate average = 0.012
	minimum = 0.004 (at node 1)
	maximum = 0.02 (at node 6)
Accepted packet rate average = 0.01225
	minimum = 0.004 (at node 4)
	maximum = 0.022 (at node 14)
Injected flit rate average = 0.012
	minimum = 0.004 (at node 1)
	maximum = 0.02 (at node 6)
Accepted flit rate average= 0.01225
	minimum = 0.004 (at node 4)
	maximum = 0.022 (at node 14)
Injected packet length average = 1
Accepted packet length average = 1
Total in-flight flits = 4 (0 measured)
latency change    = 0.040029
throughput change = 0.239796
Warmed up ...Time used is 1500 cycles
Class 0:
Packet latency average = 20.2394
	minimum = 7
	maximum = 47
Network latency average = 20.2394
	minimum = 7
	maximum = 47
Slowest packet = 6129
Flit latency average = 20.3333
	minimum = 7
	maximum = 47
Slowest flit = 6129
Fragmentation average = 0
	minimum = 0
	maximum = 0
Injected packet rate average = 0.009125
	minimum = 0.002 (at node 2)
	maximum = 0.016 (at node 7)
Accepted packet rate average = 0.009375
	minimum = 0.002 (at node 7)
	maximum = 0.018 (at node 9)
Injected flit rate average = 0.009125
	minimum = 0.002 (at node 2)
	maximum = 0.016 (at node 7)
Accepted flit rate average= 0.009375
	minimum = 0.002 (at node 7)
	maximum = 0.018 (at node 9)
Injected packet length average = 1
Accepted packet length average = 1
Total in-flight flits = 2 (2 measured)
latency change    = 0.0174116
throughput change = 0.306667
Class 0:
Packet latency average = 19.3841
	minimum = 7
	maximum = 47
Network latency average = 19.3841
	minimum = 7
	maximum = 47
Slowest packet = 6129
Flit latency average = 19.4577
	minimum = 7
	maximum = 47
Slowest flit = 6129
Fragmentation average = 0
	minimum = 0
	maximum = 0
Injected packet rate average = 0.008875
	minimum = 0.002 (at node 13)
	maximum = 0.014 (at node 6)
Accepted packet rate average = 0.008875
	minimum = 0.001 (at node 7)
	maximum = 0.016 (at node 9)
Injected flit rate average = 0.008875
	minimum = 0.002 (at node 13)
	maximum = 0.014 (at node 6)
Accepted flit rate average= 0.008875
	minimum = 0.001 (at node 7)
	maximum = 0.016 (at node 9)
Injected packet length average = 1
Accepted packet length average = 1
Total in-flight flits = 4 (4 measured)
latency change    = 0.0441279
throughput change = 0.056338
Class 0:
Packet latency average = 20.6065
	minimum = 7
	maximum = 52
Network latency average = 20.6065
	minimum = 7
	maximum = 52
Slowest packet = 6314
Flit latency average = 20.6318
	minimum = 7
	maximum = 52
Slowest flit = 6314
Fragmentation average = 0
	minimum = 0
	maximum = 0
Injected packet rate average = 0.00929167
	minimum = 0.00533333 (at node 13)
	maximum = 0.0113333 (at node 6)
Accepted packet rate average = 0.00916667
	minimum = 0.00533333 (at node 7)
	maximum = 0.012 (at node 9)
Injected flit rate average = 0.00929167
	minimum = 0.00533333 (at node 13)
	maximum = 0.0113333 (at node 6)
Accepted flit rate average= 0.00916667
	minimum = 0.00533333 (at node 7)
	maximum = 0.012 (at node 9)
Injected packet length average = 1
Accepted packet length average = 1
Total in-flight flits = 7 (7 measured)
latency change    = 0.0593223
throughput change = 0.0318182
Class 0:
Packet latency average = 20.9489
	minimum = 7
	maximum = 64
Network latency average = 20.9489
	minimum = 7
	maximum = 64
Slowest packet = 6347
Flit latency average = 20.9621
	minimum = 7
	maximum = 64
Slowest flit = 6347
Fragmentation average = 0
	minimum = 0
	maximum = 0
Injected packet rate average = 0.0098125
	minimum = 0.006 (at node 13)
	maximum = 0.0135 (at node 0)
Accepted packet rate average = 0.00990625
	minimum = 0.006 (at node 7)
	maximum = 0.0135 (at node 0)
Injected flit rate average = 0.0098125
	minimum = 0.006 (at node 13)
	maximum = 0.0135 (at node 0)
Accepted flit rate average= 0.00990625
	minimum = 0.006 (at node 7)
	maximum = 0.0135 (at node 0)
Injected packet length average = 1
Accepted packet length average = 1
Total in-flight flits = 1 (1 measured)
latency change    = 0.0163446
throughput change = 0.0746583
Class 0:
Packet latency average = 20.7641
	minimum = 7
	maximum = 64
Network latency average = 20.7641
	minimum = 7
	maximum = 64
Slowest packet = 6347
Flit latency average = 20.7766
	minimum = 7
	maximum = 64
Slowest flit = 6347
Fragmentation average = 0
	minimum = 0
	maximum = 0
Injected packet rate average = 0.009775
	minimum = 0.006 (at node 5)
	maximum = 0.0132 (at node 0)
Accepted packet rate average = 0.00985
	minimum = 0.006 (at node 5)
	maximum = 0.0132 (at node 0)
Injected flit rate average = 0.009775
	minimum = 0.006 (at node 5)
	maximum = 0.0132 (at node 0)
Accepted flit rate average= 0.00985
	minimum = 0.006 (at node 5)
	maximum = 0.0132 (at node 0)
Injected packet length average = 1
Accepted packet length average = 1
Total in-flight flits = 1 (1 measured)
latency change    = 0.00889897
throughput change = 0.00571066
Class 0:
Packet latency average = 20.9438
	minimum = 7
	maximum = 64
Network latency average = 20.9438
	minimum = 7
	maximum = 64
Slowest packet = 6347
Flit latency average = 20.9525
	minimum = 7
	maximum = 64
Slowest flit = 6347
Fragmentation average = 0
	minimum = 0
	maximum = 0
Injected packet rate average = 0.0100208
	minimum = 0.00633333 (at node 5)
	maximum = 0.014 (at node 7)
Accepted packet rate average = 0.0100833
	minimum = 0.00633333 (at node 5)
	maximum = 0.014 (at node 13)
Injected flit rate average = 0.0100208
	minimum = 0.00633333 (at node 5)
	maximum = 0.014 (at node 7)
Accepted flit rate average= 0.0100833
	minimum = 0.00633333 (at node 5)
	maximum = 0.014 (at node 13)
Injected packet length average = 1
Accepted packet length average = 1
Total in-flight flits = 1 (1 measured)
latency change    = 0.00857762
throughput change = 0.0231405
Class 0:
Packet latency average = 21.1436
	minimum = 7
	maximum = 64
Network latency average = 21.1436
	minimum = 7
	maximum = 64
Slowest packet = 6347
Flit latency average = 21.1497
	minimum = 7
	maximum = 64
Slowest flit = 6347
Fragmentation average = 0
	minimum = 0
	maximum = 0
Injected packet rate average = 0.0100179
	minimum = 0.008 (at node 5)
	maximum = 0.0134286 (at node 7)
Accepted packet rate average = 0.0100179
	minimum = 0.008 (at node 5)
	maximum = 0.0131429 (at node 13)
Injected flit rate average = 0.0100179
	minimum = 0.008 (at node 5)
	maximum = 0.0134286 (at node 7)
Accepted flit rate average= 0.0100179
	minimum = 0.008 (at node 5)
	maximum = 0.0131429 (at node 13)
Injected packet length average = 1
Accepted packet length average = 1
Total in-flight flits = 4 (4 measured)
latency change    = 0.00945328
throughput change = 0.00653595
Draining all recorded packets ...
Draining remaining packets ...
Time taken is 5049 cycles
Class 0:
Packet latency average = 21.1333
	minimum = 7
	maximum = 47
Network latency average = 21.1333
	minimum = 7
	maximum = 47
Slowest packet = 6704
Flit latency average = 21.1333
	minimum = 7
	maximum = 47
Slowest flit = 6704
Fragmentation average = 0
	minimum = 0
	maximum = 0
Injected packet rate average = 0.010125
	minimum = 0.004 (at node 9)
	maximum = 0.016 (at node 1)
Accepted packet rate average = 0.009375
	minimum = 0.004 (at node 6)
	maximum = 0.014 (at node 3)
Injected flit rate average = 0.010125
	minimum = 0.004 (at node 9)
	maximum = 0.016 (at node 1)
Accepted flit rate average= 0.009375
	minimum = 0.004 (at node 6)
	maximum = 0.014 (at node 3)
Injected packet length average = 1
Accepted packet length average = 1
Total in-flight flits = 6 (0 measured)
latency change    = 1
throughput change = 1
Class 0:
Packet latency average = 20.535
	minimum = 7
	maximum = 55
Network latency average = 20.535
	minimum = 7
	maximum = 55
Slowest packet = 6837
Flit latency average = 20.535
	minimum = 7
	maximum = 55
Slowest flit = 6837
Fragmentation average = 0
	minimum = 0
	maximum = 0
Injected packet rate average = 0.0099375
	minimum = 0.005 (at node 13)
	maximum = 0.014 (at node 1)
Accepted packet rate average = 0.0098125
	minimum = 0.004 (at node 7)
	maximum = 0.014 (at node 4)
Injected flit rate average = 0.0099375
	minimum = 0.005 (at node 13)
	maximum = 0.014 (at node 1)
Accepted flit rate average= 0.0098125
	minimum = 0.004 (at node 7)
	maximum = 0.014 (at node 4)
Injected packet length average = 1
Accepted packet length average = 1
Total in-flight flits = 2 (0 measured)
latency change    = 0.0291356
throughput change = 0.044586
Class 0:
Packet latency average = 21.9028
	minimum = 7
	maximum = 47
Network latency average = 21.9028
	minimum = 7
	maximum = 47
Slowest packet = 6856
Flit latency average = 21.9028
	minimum = 7
	maximum = 47
Slowest flit = 6856
Fragmentation average = 0
	minimum = 0
	maximum = 0
Injected packet rate average = 0.009125
	minimum = 0.006 (at node 1)
	maximum = 0.012 (at node 3)
Accepted packet rate average = 0.009
	minimum = 0.006 (at node 2)
	maximum = 0.012 (at node 1)
Injected flit rate average = 0.009125
	minimum = 0.006 (at node 1)
	maximum = 0.012 (at node 3)
Accepted flit rate average= 0.009
	minimum = 0.006 (at node 2)
	maximum = 0.012 (at node 1)
Injected packet length average = 1
Accepted packet length average = 1
Total in-flight flits = 3 (0 measured)
latency change    = 0.0624462
throughput change = 0.0902778
Warmed up ...Time used is 1500 cycles
Class 0:
Packet latency average = 18
	minimum = 7
	maximum = 47
Network latency average = 18
	minimum = 7
	maximum = 47
Slowest packet = 6972
Flit latency average = 17.9655
	minimum = 7
	maximum = 47
Slowest flit = 6972
Fragmentation average = 0
	minimum = 0
	maximum = 0
Injected packet rate average = 0.0105
	minimum = 0.002 (at node 11)
	maximum = 0.02 (at node 14)
Accepted packet rate average = 0.010875
	minimum = 0.002 (at node 14)
	maximum = 0.02 (at node 11)
Injected flit rate average = 0.0105
	minimum = 0.002 (at node 11)
	maximum = 0.02 (at node 14)
Accepted flit rate average= 0.010875
	minimum = 0.002 (at node 14)
	maximum = 0.02 (at node 11)
Injected packet length average = 1
Accepted packet length average = 1
Total in-flight flits = 0 (0 measured)
latency change    = 0.216821
throughput change = 0.172414
Class 0:
Packet latency average = 19.8976
	minimum = 7
	maximum = 54
Network latency average = 19.8976
	minimum = 7
	maximum = 54
Slowest packet = 7019
Flit latency average = 19.8462
	minimum = 7
	maximum = 54
Slowest flit = 7019
Fragmentation average = 0
	minimum = 0
	maximum = 0
Injected packet rate average = 0.0106875
	minimum = 0.007 (at node 5)
	maximum = 0.016 (at node 14)
Accepted packet rate average = 0.0105625
	minimum = 0.007 (at node 12)
	maximum = 0.016 (at node 11)
Injected flit rate average = 0.0106875
	minimum = 0.007 (at node 5)
	maximum = 0.016 (at node 14)
Accepted flit rate average= 0.0105625
	minimum = 0.007 (at node 12)
	maximum = 0.016 (at node 11)
Injected packet length average = 1
Accepted packet length average = 1
Total in-flight flits = 5 (5 measured)
latency change    = 0.0953678
throughput change = 0.0295858
Class 0:
Packet latency average = 19.9421
	minimum = 7
	maximum = 54
Network latency average = 19.9421
	minimum = 7
	maximum = 54
Slowest packet = 7019
Flit latency average = 19.9061
	minimum = 7
	maximum = 54
Slowest flit = 7019
Fragmentation average = 0
	minimum = 0
	maximum = 0
Injected packet rate average = 0.0102917
	minimum = 0.00533333 (at node 12)
	maximum = 0.016 (at node 14)
Accepted packet rate average = 0.0102083
	minimum = 0.006 (at node 3)
	maximum = 0.016 (at node 11)
Injected flit rate average = 0.0102917
	minimum = 0.00533333 (at node 12)
	maximum = 0.016 (at node 14)
Accepted flit rate average= 0.0102083
	minimum = 0.006 (at node 3)
	maximum = 0.016 (at node 11)
Injected packet length average = 1
Accepted packet length average = 1
Total in-flight flits = 5 (5 measured)
latency change    = 0.00223438
throughput change = 0.0346939
Class 0:
Packet latency average = 19.8047
	minimum = 7
	maximum = 56
Network latency average = 19.8047
	minimum = 7
	maximum = 56
Slowest packet = 7224
Flit latency average = 19.7803
	minimum = 7
	maximum = 56
Slowest flit = 7224
Fragmentation average = 0
	minimum = 0
	maximum = 0
Injected packet rate average = 0.010875
	minimum = 0.006 (at node 12)
	maximum = 0.0155 (at node 15)
Accepted packet rate average = 0.0108125
	minimum = 0.006 (at node 3)
	maximum = 0.0155 (at node 15)
Injected flit rate average = 0.010875
	minimum = 0.006 (at node 12)
	maximum = 0.0155 (at node 15)
Accepted flit rate average= 0.0108125
	minimum = 0.006 (at node 3)
	maximum = 0.0155 (at node 15)
Injected packet length average = 1
Accepted packet length average = 1
Total in-flight flits = 5 (5 measured)
latency change    = 0.006942
throughput change = 0.0558767
Class 0:
Packet latency average = 20.2018
	minimum = 7
	maximum = 65
Network latency average = 20.2018
	minimum = 7
	maximum = 65
Slowest packet = 7302
Flit latency average = 20.18
	minimum = 7
	maximum = 65
Slowest flit = 7302
Fragmentation average = 0
	minimum = 0
	maximum = 0
Injected packet rate average = 0.010975
	minimum = 0.0048 (at node 12)
	maximum = 0.0156 (at node 15)
Accepted packet rate average = 0.010975
	minimum = 0.0052 (at node 3)
	maximum = 0.0156 (at node 15)
Injected flit rate average = 0.010975
	minimum = 0.0048 (at node 12)
	maximum = 0.0156 (at node 15)
Accepted flit rate average= 0.010975
	minimum = 0.0052 (at node 3)
	maximum = 0.0156 (at node 15)
Injected packet length average = 1
Accepted packet length average = 1
Total in-flight flits = 3 (3 measured)
latency change    = 0.0196601
throughput change = 0.0148064
Class 0:
Packet latency average = 20.4155
	minimum = 7
	maximum = 65
Network latency average = 20.4155
	minimum = 7
	maximum = 65
Slowest packet = 7302
Flit latency average = 20.3958
	minimum = 7
	maximum = 65
Slowest flit = 7302
Fragmentation average = 0
	minimum = 0
	maximum = 0
Injected packet rate average = 0.0108333
	minimum = 0.00633333 (at node 12)
	maximum = 0.0143333 (at node 14)
Accepted packet rate average = 0.0107917
	minimum = 0.00633333 (at node 3)
	maximum = 0.0143333 (at node 11)
Injected flit rate average = 0.0108333
	minimum = 0.00633333 (at node 12)
[...]
	minimum = 7
	maximum = 49
Slowest packet = 31588
Flit latency average = 21.2706
	minimum = 7
	maximum = 49
Slowest flit = 31588
Fragmentation average = 0
	minimum = 0
	maximum = 0
Injected packet rate average = 0.010125
	minimum = 0.002 (at node 9)
	maximum = 0.014 (at node 0)
Accepted packet rate average = 0.010625
	minimum = 0.002 (at node 6)
	maximum = 0.018 (at node 8)
Injected flit rate average = 0.010125
	minimum = 0.002 (at node 9)
	maximum = 0.014 (at node 0)
Accepted flit rate average= 0.010625
	minimum = 0.002 (at node 6)
	maximum = 0.018 (at node 8)
Injected packet length average = 1
Accepted packet length average = 1
Total in-flight flits = 2 (2 measured)
latency change    = 0.135706
throughput change = 0.0235294
Class 0:
Packet latency average = 21.3893
	minimum = 7
	maximum = 64
Network latency average = 21.3893
	minimum = 7
	maximum = 64
Slowest packet = 31662
Flit latency average = 21.7742
	minimum = 7
	maximum = 64
Slowest flit = 31662
Fragmentation average = 0
	minimum = 0
	maximum = 0
Injected packet rate average = 0.0094375
	minimum = 0.007 (at node 9)
	maximum = 0.012 (at node 3)
Accepted packet rate average = 0.0096875
	minimum = 0.007 (at node 6)
	maximum = 0.013 (at node 8)
Injected flit rate average = 0.0094375
	minimum = 0.007 (at node 9)
	maximum = 0.012 (at node 3)
Accepted flit rate average= 0.0096875
	minimum = 0.007 (at node 6)
	maximum = 0.013 (at node 8)
Injected packet length average = 1
Accepted packet length average = 1
Total in-flight flits = 2 (2 measured)
latency change    = 0.0412792
throughput change = 0.0967742
Class 0:
Packet latency average = 21.3246
	minimum = 7
	maximum = 64
Network latency average = 21.3246
	minimum = 7
	maximum = 64
Slowest packet = 31662
Flit latency average = 21.5812
	minimum = 7
	maximum = 64
Slowest flit = 31662
Fragmentation average = 0
	minimum = 0
	maximum = 0
Injected packet rate average = 0.009625
	minimum = 0.00666667 (at node 4)
	maximum = 0.014 (at node 7)
Accepted packet rate average = 0.00975
	minimum = 0.00666667 (at node 1)
	maximum = 0.0146667 (at node 13)
Injected flit rate average = 0.009625
	minimum = 0.00666667 (at node 4)
	maximum = 0.014 (at node 7)
Accepted flit rate average= 0.00975
	minimum = 0.00666667 (at node 1)
	maximum = 0.0146667 (at node 13)
Injected packet length average = 1
Accepted packet length average = 1
Total in-flight flits = 3 (3 measured)
latency change    = 0.00303408
throughput change = 0.00641026
Class 0:
Packet latency average = 21.0205
	minimum = 7
	maximum = 64
Network latency average = 21.0205
	minimum = 7
	maximum = 64
Slowest packet = 31662
Flit latency average = 21.2282
	minimum = 7
	maximum = 64
Slowest flit = 31662
Fragmentation average = 0
	minimum = 0
	maximum = 0
Injected packet rate average = 0.00928125
	minimum = 0.006 (at node 15)
	maximum = 0.0115 (at node 6)
Accepted packet rate average = 0.0093125
	minimum = 0.006 (at node 15)
	maximum = 0.0115 (at node 8)
Injected flit rate average = 0.00928125
	minimum = 0.006 (at node 15)
	maximum = 0.0115 (at node 6)
Accepted flit rate average= 0.0093125
	minimum = 0.006 (at node 15)
	maximum = 0.0115 (at node 8)
Injected packet length average = 1
Accepted packet length average = 1
Total in-flight flits = 5 (5 measured)
latency change    = 0.0144627
throughput change = 0.0469799
Class 0:
Packet latency average = 21
	minimum = 7
	maximum = 64
Network latency average = 21
	minimum = 7
	maximum = 64
Slowest packet = 31662
Flit latency average = 21.1649
	minimum = 7
	maximum = 64
Slowest flit = 31662
Fragmentation average = 0
	minimum = 0
	maximum = 0
Injected packet rate average = 0.0093
	minimum = 0.0072 (at node 11)
	maximum = 0.0128 (at node 6)
Accepted packet rate average = 0.0094
	minimum = 0.0076 (at node 4)
	maximum = 0.0128 (at node 9)
Injected flit rate average = 0.0093
	minimum = 0.0072 (at node 11)
	maximum = 0.0128 (at node 6)
Accepted flit rate average= 0.0094
	minimum = 0.0076 (at node 4)
	maximum = 0.0128 (at node 9)
Injected packet length average = 1
Accepted packet length average = 1
Total in-flight flits = 2 (2 measured)
latency change    = 0.000978474
throughput change = 0.00930851
Draining all recorded packets ...
Draining remaining packets ...
Time taken is 4043 cycles
Class 0:
Packet latency average = 21.6515
	minimum = 7
	maximum = 58
Network latency average = 21.6515
	minimum = 7
	maximum = 58
Slowest packet = 31920
Flit latency average = 21.6515
	minimum = 7
	maximum = 58
Slowest flit = 31920
Fragmentation average = 0
	minimum = 0
	maximum = 0
Injected packet rate average = 0.008625
	minimum = 0.002 (at node 0)
	maximum = 0.014 (at node 1)
Accepted packet rate average = 0.00825
	minimum = 0.002 (at node 0)
	maximum = 0.014 (at node 4)
Injected flit rate average = 0.008625
	minimum = 0.002 (at node 0)
	maximum = 0.014 (at node 1)
Accepted flit rate average= 0.00825
	minimum = 0.002 (at node 0)
	maximum = 0.014 (at node 4)
Injected packet length average = 1
Accepted packet length average = 1
Total in-flight flits = 3 (0 measured)
latency change    = 1
throughput change = 1
Class 0:
Packet latency average = 20.3916
	minimum = 7
	maximum = 58
Network latency average = 20.3916
	minimum = 7
	maximum = 58
Slowest packet = 31920
Flit latency average = 20.3916
	minimum = 7
	maximum = 58
Slowest flit = 31920
Fragmentation average = 0
	minimum = 0
	maximum = 0
Injected packet rate average = 0.0091875
	minimum = 0.005 (at node 6)
	maximum = 0.013 (at node 1)
Accepted packet rate average = 0.0089375
	minimum = 0.004 (at node 2)
	maximum = 0.013 (at node 4)
Injected flit rate average = 0.0091875
	minimum = 0.005 (at node 6)
	maximum = 0.013 (at node 1)
Accepted flit rate average= 0.0089375
	minimum = 0.004 (at node 2)
	maximum = 0.013 (at node 4)
Injected packet length average = 1
Accepted packet length average = 1
Total in-flight flits = 4 (0 measured)
latency change    = 0.0617856
throughput change = 0.0769231
Class 0:
Packet latency average = 19.8101
	minimum = 7
	maximum = 48
Network latency average = 19.8101
	minimum = 7
	maximum = 48
Slowest packet = 32102
Flit latency average = 19.8101
	minimum = 7
	maximum = 48
Slowest flit = 32102
Fragmentation average = 0
	minimum = 0
	maximum = 0
Injected packet rate average = 0.009875
	minimum = 0.002 (at node 1)
	maximum = 0.018 (at node 10)
Accepted packet rate average = 0.009875
	minimum = 0.002 (at node 4)
	maximum = 0.016 (at node 10)
Injected flit rate average = 0.009875
	minimum = 0.002 (at node 1)
	maximum = 0.018 (at node 10)
Accepted flit rate average= 0.009875
	minimum = 0.002 (at node 4)
	maximum = 0.016 (at node 10)
Injected packet length average = 1
Accepted packet length average = 1
Total in-flight flits = 4 (0 measured)
latency change    = 0.0293528
throughput change = 0.0949367
Warmed up ...Time used is 1500 cycles
Class 0:
Packet latency average = 21.0282
	minimum = 7
	maximum = 47
Network latency average = 21.0282
	minimum = 7
	maximum = 47
Slowest packet = 32133
Flit latency average = 21.52
	minimum = 7
	maximum = 50
Slowest flit = 32128
Fragmentation average = 0
	minimum = 0
	maximum = 0
Injected packet rate average = 0.009375
	minimum = 0.006 (at node 0)
	maximum = 0.018 (at node 8)
Accepted packet rate average = 0.009375
	minimum = 0.006 (at node 0)
	maximum = 0.016 (at node 2)
Injected flit rate average = 0.009375
	minimum = 0.006 (at node 0)
	maximum = 0.018 (at node 8)
Accepted flit rate average= 0.009375
	minimum = 0.006 (at node 0)
	maximum = 0.016 (at node 2)
Injected packet length average = 1
Accepted packet length average = 1
Total in-flight flits = 4 (4 measured)
latency change    = 0.0579243
throughput change = 0.0533333
Class 0:
Packet latency average = 21.7756
	minimum = 7
	maximum = 54
Network latency average = 21.7756
	minimum = 7
	maximum = 54
Slowest packet = 32271
Flit latency average = 21.9875
	minimum = 7
	maximum = 54
Slowest flit = 32271
Fragmentation average = 0
	minimum = 0
	maximum = 0
Injected packet rate average = 0.010125
	minimum = 0.006 (at node 0)
	maximum = 0.017 (at node 2)
Accepted packet rate average = 0.01
	minimum = 0.006 (at node 0)
	maximum = 0.015 (at node 2)
Injected flit rate average = 0.010125
	minimum = 0.006 (at node 0)
	maximum = 0.017 (at node 2)
Accepted flit rate average= 0.01
	minimum = 0.006 (at node 0)
	maximum = 0.015 (at node 2)
Injected packet length average = 1
Accepted packet length average = 1
Total in-flight flits = 6 (6 measured)
latency change    = 0.0343261
throughput change = 0.0625
Class 0:
Packet latency average = 21.9319
	minimum = 7
	maximum = 59
Network latency average = 21.9319
	minimum = 7
	maximum = 59
Slowest packet = 32290
Flit latency average = 22.0711
	minimum = 7
	maximum = 59
Slowest flit = 32290
Fragmentation average = 0
	minimum = 0
	maximum = 0
Injected packet rate average = 0.00995833
	minimum = 0.00733333 (at node 0)
	maximum = 0.0193333 (at node 8)
Accepted packet rate average = 0.00995833
	minimum = 0.00733333 (at node 0)
	maximum = 0.0186667 (at node 2)
Injected flit rate average = 0.00995833
	minimum = 0.00733333 (at node 0)
	maximum = 0.0193333 (at node 8)
Accepted flit rate average= 0.00995833
	minimum = 0.00733333 (at node 0)
	maximum = 0.0186667 (at node 2)
Injected packet length average = 1
Accepted packet length average = 1
Total in-flight flits = 4 (4 measured)
latency change    = 0.00712541
throughput change = 0.0041841
Class 0:
Packet latency average = 21.2533
	minimum = 7
	maximum = 59
Network latency average = 21.2533
	minimum = 7
	maximum = 59
Slowest packet = 32290
Flit latency average = 21.3717
	minimum = 7
	maximum = 59
Slowest flit = 32290
Fragmentation average = 0
	minimum = 0
	maximum = 0
Injected packet rate average = 0.00953125
	minimum = 0.007 (at node 0)
	maximum = 0.017 (at node 8)
Accepted packet rate average = 0.0095
	minimum = 0.007 (at node 0)
	maximum = 0.0165 (at node 2)
Injected flit rate average = 0.00953125
	minimum = 0.007 (at node 0)
	maximum = 0.017 (at node 8)
Accepted flit rate average= 0.0095
	minimum = 0.007 (at node 0)
	maximum = 0.0165 (at node 2)
Injected packet length average = 1
Accepted packet length average = 1
Total in-flight flits = 5 (5 measured)
latency change    = 0.0319282
throughput change = 0.0482456
Class 0:
Packet latency average = 21.4156
	minimum = 7
	maximum = 59
Network latency average = 21.4156
	minimum = 7
	maximum = 59
Slowest packet = 32290
Flit latency average = 21.5064
	minimum = 7
	maximum = 59
Slowest flit = 32290
Fragmentation average = 0
	minimum = 0
	maximum = 0
Injected packet rate average = 0.00965
	minimum = 0.0068 (at node 0)
	maximum = 0.0156 (at node 8)
Accepted packet rate average = 0.009725
	minimum = 0.0068 (at node 0)
	maximum = 0.0156 (at node 2)
Injected flit rate average = 0.00965
	minimum = 0.0068 (at node 0)
	maximum = 0.0156 (at node 8)
Accepted flit rate average= 0.009725
	minimum = 0.0068 (at node 0)
	maximum = 0.0156 (at node 2)
Injected packet length average = 1
Accepted packet length average = 1
Total in-flight flits = 1 (1 measured)
latency change    = 0.00757631
throughput change = 0.0231362
Draining all recorded packets ...
Draining remaining packets ...
Time taken is 4035 cycles
Class 0:
Packet latency average = 21.3133
	minimum = 7
	maximum = 55
Network latency average = 21.3133
	minimum = 7
	maximum = 55
Slowest packet = 32551
Flit latency average = 21.3133
	minimum = 7
	maximum = 55
Slowest flit = 32551
Fragmentation average = 0
	minimum = 0
	maximum = 0
Injected packet rate average = 0.010875
	minimum = 0.004 (at node 7)
	maximum = 0.02 (at node 2)
Accepted packet rate average = 0.010375
	minimum = 0.004 (at node 13)
	maximum = 0.02 (at node 11)
Injected flit rate average = 0.010875
	minimum = 0.004 (at node 7)
	maximum = 0.02 (at node 2)
Accepted flit rate average= 0.010375
	minimum = 0.004 (at node 13)
	maximum = 0.02 (at node 11)
Injected packet length average = 1
Accepted packet length average = 1
Total in-flight flits = 4 (0 measured)
latency change    = 1
throughput change = 1
Class 0:
Packet latency average = 21.25
	minimum = 7
	maximum = 55
Network latency average = 21.25
	minimum = 7
	maximum = 55
Slowest packet = 32551
Flit latency average = 21.25
	minimum = 7
	maximum = 55
Slowest flit = 32551
Fragmentation average = 0
	minimum = 0
	maximum = 0
Injected packet rate average = 0.010125
	minimum = 0.005 (at node 7)
	maximum = 0.017 (at node 2)
Accepted packet rate average = 0.01
	minimum = 0.005 (at node 13)
	maximum = 0.016 (at node 8)
Injected flit rate average = 0.010125
	minimum = 0.005 (at node 7)
	maximum = 0.017 (at node 2)
Accepted flit rate average= 0.01
	minimum = 0.005 (at node 13)
	maximum = 0.016 (at node 8)
Injected packet length average = 1
Accepted packet length average = 1
Total in-flight flits = 2 (0 measured)
latency change    = 0.00297661
throughput change = 0.0375
Class 0:
Packet latency average = 21.28
	minimum = 7
	maximum = 49
Network latency average = 21.28
	minimum = 7
	maximum = 49
Slowest packet = 32710
Flit latency average = 21.28
	minimum = 7
	maximum = 49
Slowest flit = 32710
Fragmentation average = 0
	minimum = 0
	maximum = 0
Injected packet rate average = 0.009375
	minimum = 0.006 (at node 1)
	maximum = 0.014 (at node 7)
Accepted packet rate average = 0.009375
	minimum = 0.004 (at node 10)
	maximum = 0.014 (at node 6)
Injected flit rate average = 0.009375
	minimum = 0.006 (at node 1)
	maximum = 0.014 (at node 7)
Accepted flit rate average= 0.009375
	minimum = 0.004 (at node 10)
	maximum = 0.014 (at node 6)
Injected packet length average = 1
Accepted packet length average = 1
Total in-flight flits = 2 (0 measured)
latency change    = 0.00140977
throughput change = 0.0666667
Warmed up ...Time used is 1500 cycles
Class 0:
Packet latency average = 21.3333
	minimum = 7
	maximum = 47
Network latency average = 21.3333
	minimum = 7
	maximum = 47
Slowest packet = 32780
Flit latency average = 20.9459
	minimum = 7
	maximum = 47
Slowest flit = 32780
Fragmentation average = 0
	minimum = 0
	maximum = 0
Injected packet rate average = 0.00925
	minimum = 0.004 (at node 13)
	maximum = 0.016 (at node 1)
Accepted packet rate average = 0.00925
	minimum = 0.004 (at node 7)
	maximum = 0.018 (at node 10)
Injected flit rate average = 0.00925
	minimum = 0.004 (at node 13)
	maximum = 0.016 (at node 1)
Accepted flit rate average= 0.00925
	minimum = 0.004 (at node 7)
	maximum = 0.018 (at node 10)
Injected packet length average = 1
Accepted packet length average = 1
Total in-flight flits = 2 (2 measured)
latency change    = 0.0025
throughput change = 0.0135135
Class 0:
Packet latency average = 21.1242
	minimum = 7
	maximum = 61
Network latency average = 21.1242
	minimum = 7
	maximum = 61
Slowest packet = 32878
Flit latency average = 20.9509
	minimum = 7
	maximum = 61
Slowest flit = 32878
Fragmentation average = 0
	minimum = 0
	maximum = 0
Injected packet rate average = 0.0103125
	minimum = 0.004 (at node 13)
	maximum = 0.015 (at node 10)
Accepted packet rate average = 0.0101875
	minimum = 0.004 (at node 7)
	maximum = 0.016 (at node 10)
Injected flit rate average = 0.0103125
	minimum = 0.004 (at node 13)
	maximum = 0.015 (at node 10)
Accepted flit rate average= 0.0101875
	minimum = 0.004 (at node 7)
	maximum = 0.016 (at node 10)
Injected packet length average = 1
Accepted packet length average = 1
Total in-flight flits = 4 (4 measured)
latency change    = 0.00989905
throughput change = 0.0920245
Class 0:
Packet latency average = 21.4956
	minimum = 7
	maximum = 61
Network latency average = 21.4956
	minimum = 7
	maximum = 61
Slowest packet = 32878
Flit latency average = 21.3696
	minimum = 7
	maximum = 61
Slowest flit = 32878
Fragmentation average = 0
	minimum = 0
	maximum = 0
Injected packet rate average = 0.009625
	minimum = 0.006 (at node 13)
	maximum = 0.0126667 (at node 10)
Accepted packet rate average = 0.00958333
	minimum = 0.006 (at node 7)
	maximum = 0.0133333 (at node 10)
Injected flit rate average = 0.009625
	minimum = 0.006 (at node 13)
	maximum = 0.0126667 (at node 10)
Accepted flit rate average= 0.00958333
	minimum = 0.006 (at node 7)
	maximum = 0.0133333 (at node 10)
Injected packet length average = 1
Accepted packet length average = 1
Total in-flight flits = 3 (3 measured)
latency change    = 0.0172775
throughput change = 0.0630435
Class 0:
Packet latency average = 21.33
	minimum = 7
	maximum = 61
Network latency average = 21.33
	minimum = 7
	maximum = 61
Slowest packet = 32878
Flit latency average = 21.2351
	minimum = 7
	maximum = 61
Slowest flit = 32878
Fragmentation average = 0
	minimum = 0
	maximum = 0
Injected packet rate average = 0.00953125
	minimum = 0.0065 (at node 13)
	maximum = 0.0135 (at node 11)
Accepted packet rate average = 0.0094375
	minimum = 0.0065 (at node 0)
	maximum = 0.0135 (at node 14)
Injected flit rate average = 0.00953125
	minimum = 0.0065 (at node 13)
	maximum = 0.0135 (at node 11)
Accepted flit rate average= 0.0094375
	minimum = 0.0065 (at node 0)
	maximum = 0.0135 (at node 14)
Injected packet length average = 1
Accepted packet length average = 1
Total in-flight flits = 5 (5 measured)
latency change    = 0.00776437
throughput change = 0.0154525
Class 0:
Packet latency average = 21.6839
	minimum = 7
	maximum = 61
Network latency average = 21.6839
	minimum = 7
	maximum = 61
Slowest packet = 32878
Flit latency average = 21.6043
	minimum = 7
	maximum = 61
Slowest flit = 32878
Fragmentation average = 0
	minimum = 0
	maximum = 0
Injected packet rate average = 0.00925
	minimum = 0.006 (at node 13)
	maximum = 0.0124 (at node 11)
Accepted packet rate average = 0.009225
	minimum = 0.006 (at node 7)
	maximum = 0.0124 (at node 14)
Injected flit rate average = 0.00925
	minimum = 0.006 (at node 13)
	maximum = 0.0124 (at node 11)
Accepted flit rate average= 0.009225
	minimum = 0.006 (at node 7)
	maximum = 0.0124 (at node 14)
Injected packet length average = 1
Accepted packet length average = 1
Total in-flight flits = 3 (3 measured)
latency change    = 0.0163219
throughput change = 0.0230352
Class 0:
Packet latency average = 21.6347
	minimum = 7
	maximum = 64
Network latency average = 21.6347
	minimum = 7
	maximum = 64
Slowest packet = 33139
Flit latency average = 21.5698
	minimum = 7
	maximum = 64
Slowest flit = 33139
Fragmentation average = 0
	minimum = 0
	maximum = 0
Injected packet rate average = 0.00947917
	minimum = 0.00633333 (at node 6)
	maximum = 0.0123333 (at node 10)
Accepted packet rate average = 0.00939583
	minimum = 0.00633333 (at node 9)
	maximum = 0.0126667 (at node 10)
Injected flit rate average = 0.00947917
	minimum = 0.00633333 (at node 6)
	maximum = 0.0123333 (at node 10)
Accepted flit rate average= 0.00939583
	minimum = 0.00633333 (at node 9)
	maximum = 0.0126667 (at node 10)
Injected packet length average = 1
Accepted packet length average = 1
Total in-flight flits = 6 (6 measured)
latency change    = 0.00227319
throughput change = 0.0181818
Draining all recorded packets ...
Draining remaining packets ...
Time taken is 4555 cycles
====== Overall Traffic Statistics ======
====== Traffic class 0 ======
Packet latency average = 21.0324 (50 samples)
	minimum = 7 (50 samples)
	maximum = 59.4 (50 samples)
Network latency average = 21.0324 (50 samples)
	minimum = 7 (50 samples)
	maximum = 59.4 (50 samples)
Flit latency average = 21.0828 (50 samples)
	minimum = 7 (50 samples)
	maximum = 59.46 (50 samples)
Fragmentation average = 0 (50 samples)
	minimum = 0 (50 samples)
	maximum = 0 (50 samples)
Injected packet rate average = 0.00998751 (50 samples)
	minimum = 0.00669924 (50 samples)
	maximum = 0.013701 (50 samples)
Accepted packet rate average = 0.00997316 (50 samples)
	minimum = 0.00666229 (50 samples)
	maximum = 0.0137656 (50 samples)
Injected flit rate average = 0.00998751 (50 samples)
	minimum = 0.00669924 (50 samples)
	maximum = 0.013701 (50 samples)
Accepted flit rate average = 0.00997316 (50 samples)
	minimum = 0.00666229 (50 samples)
	maximum = 0.0137656 (50 samples)
Injected packet size average = 1 (50 samples)
Accepted packet size average = 1 (50 samples)
Hops average = 3.75868 (50 samples)
Total run time 1.14151
