BEGIN Configuration File: /tmp/tmpc98ypl0u.cfg
topology = mesh;
k = 4;
n = 2;
routing_function = planar_adapt;
num_vcs = 4;
vc_buf_size = 4;
wait_for_tail_credit = 1;
vc_allocator = islip;
sw_allocator = islip;
alloc_iters = 1;
credit_delay = 2;
routing_delay = 1;
vc_alloc_delay = 1;
sw_alloc_delay = 1;
input_speedup = 2;
output_speedup = 1;
internal_speedup = 1.0;
traffic = transpose;
packet_size = 1;
sim_type = latency;
injection_rate = 0.01;
warmup_periods = 3;
sample_period = 500;
sim_count = 50;
seed = 2;
link_failures = 4;
fail_seed = 202;

END Configuration File: /tmp/tmpc98ypl0u.cfg
failure at node 4, channel 2 (1/4)
failure at node 13, channel 0 (2/4)
failure at node 6, channel 1 (3/4)
failure at node 11, channel 3 (4/4)
Class 0:
Packet latency average = 23.5806
	minimum = 7
	maximum = 57
Network latency average = 23.5806
	minimum = 7
	maximum = 57
Slowest packet = 6
Flit latency average = 23.5806
	minimum = 7
	maximum = 57
Slowest flit = 6
Fragmentation average = 0
	minimum = 0
	maximum = 0
Injected packet rate average = 0.008125
	minimum = 0 (at node 9)
	maximum = 0.014 (at node 5)
Accepted packet rate average = 0.00775
	minimum = 0 (at node 6)
	maximum = 0.014 (at node 5)
Injected flit rate average = 0.008125
	minimum = 0 (at node 9)
	maximum = 0.014 (at node 5)
Accepted flit rate average= 0.00775
	minimum = 0 (at node 6)
	maximum = 0.014 (at node 5)
Injected packet length average = 1
Accepted packet length average = 1
Total in-flight flits = 3 (0 measured)
latency change    = 1
throughput change = 1
Class 0:
Packet latency average = 22.0379
	minimum = 7
	maximum = 57
Network latency average = 22.0379
	minimum = 7
	maximum = 57
Slowest packet = 6
Flit latency average = 22.0379
	minimum = 7
	maximum = 57
Slowest flit = 6
Fragmentation average = 0
	minimum = 0
	maximum = 0
Injected packet rate average = 0.008625
	minimum = 0.003 (at node 2)
	maximum = 0.015 (at node 13)
Accepted packet rate average = 0.00825
	minimum = 0.003 (at node 6)
	maximum = 0.013 (at node 7)
Injected flit rate average = 0.008625
	minimum = 0.003 (at node 2)
	maximum = 0.015 (at node 13)
Accepted flit rate average= 0.00825
	minimum = 0.003 (at node 6)
	maximum = 0.013 (at node 7)
Injected packet length average = 1
Accepted packet length average = 1
Total in-flight flits = 6 (0 measured)
latency change    = 0.0700052
throughput change = 0.0606061
Class 0:
Packet latency average = 24.6588
	minimum = 7
	maximum = 67
Network latency average = 24.6588
	minimum = 7
	maximum = 67
Slowest packet = 135
Flit latency average = 24.6588
	minimum = 7
	maximum = 67
Slowest flit = 135
Fragmentation average = 0
	minimum = 0
	maximum = 0
Injected packet rate average = 0.01
	minimum = 0.002 (at node 3)
	maximum = 0.022 (at node 13)
Accepted packet rate average = 0.010625
	minimum = 0.002 (at node 4)
	maximum = 0.026 (at node 7)
Injected flit rate average = 0.01
	minimum = 0.002 (at node 3)
	maximum = 0.022 (at node 13)
Accepted flit rate average= 0.010625
	minimum = 0.002 (at node 4)
	maximum = 0.026 (at node 7)
Injected packet length average = 1
Accepted packet length average = 1
Total in-flight flits = 1 (0 measured)
latency change    = 0.106288
throughput change = 0.223529
Warmed up ...Time used is 1500 cycles
Class 0:
Packet latency average = 22.4713
	minimum = 7
	maximum = 58
Network latency average = 22.4713
	minimum = 7
	maximum = 58
Slowest packet = 227
Flit latency average = 22.4091
	minimum = 7
	maximum = 58
Slowest flit = 227
Fragmentation average = 0
	minimum = 0
	maximum = 0
Injected packet rate average = 0.01125
	minimum = 0.004 (at node 15)
	maximum = 0.022 (at node 10)
Accepted packet rate average = 0.011
	minimum = 0.004 (at node 8)
	maximum = 0.022 (at node 10)
Injected flit rate average = 0.01125
	minimum = 0.004 (at node 15)
	maximum = 0.022 (at node 10)
Accepted flit rate average= 0.011
	minimum = 0.004 (at node 8)
	maximum = 0.022 (at node 10)
Injected packet length average = 1
Accepted packet length average = 1
Total in-flight flits = 3 (3 measured)
latency change    = 0.0973492
throughput change = 0.0340909
Class 0:
Packet latency average = 23.7229
	minimum = 7
	maximum = 58
Network latency average = 23.7229
	minimum = 7
	maximum = 58
Slowest packet = 227
Flit latency average = 23.6826
	minimum = 7
	maximum = 58
Slowest flit = 227
Fragmentation average = 0
	minimum = 0
	maximum = 0
Injected packet rate average = 0.0105
	minimum = 0.006 (at node 2)
	maximum = 0.015 (at node 3)
Accepted packet rate average = 0.0104375
	minimum = 0.006 (at node 8)
	maximum = 0.015 (at node 10)
Injected flit rate average = 0.0105
	minimum = 0.006 (at node 2)
	maximum = 0.015 (at node 3)
Accepted flit rate average= 0.0104375
	minimum = 0.006 (at node 8)
	maximum = 0.015 (at node 10)
Injected packet length average = 1
Accepted packet length average = 1
Total in-flight flits = 2 (2 measured)
latency change    = 0.0527603
throughput change = 0.0538922
Class 0:
Packet latency average = 24.0733
	minimum = 7
	maximum = 66
Network latency average = 24.0733
	minimum = 7
	maximum = 66
Slowest packet = 422
Flit latency average = 24.0429
	minimum = 7
	maximum = 66
Slowest flit = 422
Fragmentation average = 0
	minimum = 0
	maximum = 0
Injected packet rate average = 0.00983333
	minimum = 0.00666667 (at node 1)
	maximum = 0.0153333 (at node 3)
Accepted packet rate average = 0.00970833
	minimum = 0.00666667 (at node 2)
	maximum = 0.0146667 (at node 12)
Injected flit rate average = 0.00983333
	minimum = 0.00666667 (at node 1)
	maximum = 0.0153333 (at node 3)
Accepted flit rate average= 0.00970833
	minimum = 0.00666667 (at node 2)
	maximum = 0.0146667 (at node 12)
Injected packet length average = 1
Accepted packet length average = 1
Total in-flight flits = 4 (4 measured)
latency change    = 0.0145549
throughput change = 0.0751073
Class 0:
Packet latency average = 24.175
	minimum = 7
	maximum = 66
Network latency average = 24.175
	minimum = 7
	maximum = 66
Slowest packet = 422
Flit latency average = 24.1526
	minimum = 7
	maximum = 66
Slowest flit = 422
Fragmentation average = 0
	minimum = 0
	maximum = 0
Injected packet rate average = 0.0101875
	minimum = 0.0065 (at node 8)
	maximum = 0.014 (at node 10)
Accepted packet rate average = 0.0100313
	minimum = 0.0065 (at node 2)
	maximum = 0.014 (at node 10)
Injected flit rate average = 0.0101875
	minimum = 0.0065 (at node 8)
	maximum = 0.014 (at node 10)
Accepted flit rate average= 0.0100313
	minimum = 0.0065 (at node 2)
	maximum = 0.014 (at node 10)
Injected packet length average = 1
Accepted packet length average = 1
Total in-flight flits = 6 (6 measured)
latency change    = 0.00420782
throughput change = 0.0321911
Class 0:
Packet latency average = 24.0713
	minimum = 7
	maximum = 66
Network latency average = 24.0713
	minimum = 7
	maximum = 66
Slowest packet = 422
Flit latency average = 24.0539
	minimum = 7
	maximum = 66
Slowest flit = 422
Fragmentation average = 0
	minimum = 0
	maximum = 0
Injected packet rate average = 0.010275
	minimum = 0.0076 (at node 1)
	maximum = 0.0136 (at node 12)
Accepted packet rate average = 0.0102
	minimum = 0.0076 (at node 2)
	maximum = 0.0132 (at node 10)
Injected flit rate average = 0.010275
	minimum = 0.0076 (at node 1)
	maximum = 0.0136 (at node 12)
Accepted flit rate average= 0.0102
	minimum = 0.0076 (at node 2)
	maximum = 0.0132 (at node 10)
Injected packet length average = 1
Accepted packet length average = 1
Total in-flight flits = 4 (4 measured)
latency change    = 0.00430999
throughput change = 0.0165441
Class 0:
Packet latency average = 23.7947
	minimum = 7
	maximum = 66
Network latency average = 23.7947
	minimum = 7
	maximum = 66
Slowest packet = 422
Flit latency average = 23.7807
	minimum = 7
	maximum = 66
Slowest flit = 422
Fragmentation average = 0
	minimum = 0
	maximum = 0
Injected packet rate average = 0.0103125
	minimum = 0.00766667 (at node 1)
	maximum = 0.0136667 (at node 10)
Accepted packet rate average = 0.0101667
	minimum = 0.00766667 (at node 8)
	maximum = 0.0133333 (at node 10)
Injected flit rate average = 0.0103125
	minimum = 0.00766667 (at node 1)
	maximum = 0.0136667 (at node 10)
Accepted flit rate average= 0.0101667
	minimum = 0.00766667 (at node 8)
	maximum = 0.0133333 (at node 10)
Injected packet length average = 1
Accepted packet length average = 1
Total in-flight flits = 8 (8 measured)
latency change    = 0.0116241
throughput change = 0.00327869
Draining all recorded packets ...
Draining remaining packets ...
Time taken is 4553 cycles
Class 0:
Packet latency average = 20.2353
	minimum = 7
	maximum = 57
Network latency average = 20.2353
	minimum = 7
	maximum = 57
Slowest packet = 731
Flit latency average = 20.2353
	minimum = 7
	maximum = 57
Slowest flit = 731
Fragmentation average = 0
	minimum = 0
	maximum = 0
Injected packet rate average = 0.009
	minimum = 0.004 (at node 13)
	maximum = 0.026 (at node 5)
Accepted packet rate average = 0.0085
	minimum = 0.004 (at node 7)
	maximum = 0.026 (at node 5)
Injected flit rate average = 0.009
	minimum = 0.004 (at node 13)
	maximum = 0.026 (at node 5)
Accepted flit rate average= 0.0085
	minimum = 0.004 (at node 7)
	maximum = 0.026 (at node 5)
Injected packet length average = 1
Accepted packet length average = 1
Total in-flight flits = 4 (0 measured)
latency change    = 1
throughput change = 1
Class 0:
Packet latency average = 21.019
	minimum = 7
	maximum = 57
Network latency average = 21.019
	minimum = 7
	maximum = 57
Slowest packet = 731
Flit latency average = 21.019
	minimum = 7
	maximum = 57
Slowest flit = 731
Fragmentation average = 0
	minimum = 0
	maximum = 0
Injected packet rate average = 0.0100625
	minimum = 0.005 (at node 2)
	maximum = 0.018 (at node 5)
Accepted packet rate average = 0.009875
	minimum = 0.005 (at node 2)
	maximum = 0.018 (at node 5)
Injected flit rate average = 0.0100625
	minimum = 0.005 (at node 2)
	maximum = 0.018 (at node 5)
Accepted flit rate average= 0.009875
	minimum = 0.005 (at node 2)
	maximum = 0.018 (at node 5)
Injected packet length average = 1
Accepted packet length average = 1
Total in-flight flits = 3 (0 measured)
latency change    = 0.037285
throughput change = 0.139241
Class 0:
Packet latency average = 25.8933
	minimum = 7
	maximum = 65
Network latency average = 25.8933
	minimum = 7
	maximum = 65
Slowest packet = 904
Flit latency average = 25.8933
	minimum = 7
	maximum = 65
Slowest flit = 904
Fragmentation average = 0
	minimum = 0
	maximum = 0
Injected packet rate average = 0.009625
	minimum = 0.004 (at node 1)
	maximum = 0.018 (at node 9)
Accepted packet rate average = 0.009375
	minimum = 0.004 (at node 4)
	maximum = 0.014 (at node 6)
Injected flit rate average = 0.009625
	minimum = 0.004 (at node 1)
	maximum = 0.018 (at node 9)
Accepted flit rate average= 0.009375
	minimum = 0.004 (at node 4)
	maximum = 0.014 (at node 6)
Injected packet length average = 1
Accepted packet length average = 1
Total in-flight flits = 5 (0 measured)
latency change    = 0.188247
throughput change = 0.0533333
Warmed up ...Time used is 1500 cycles
Class 0:
Packet latency average = 23.9157
	minimum = 7
	maximum = 64
Network latency average = 23.9157
	minimum = 7
	maximum = 64
Slowest packet = 975
Flit latency average = 24.0909
	minimum = 7
	maximum = 64
Slowest flit = 975
Fragmentation average = 0
	minimum = 0
	maximum = 0
Injected packet rate average = 0.010875
	minimum = 0.004 (at node 6)
	maximum = 0.016 (at node 5)
Accepted packet rate average = 0.011
	minimum = 0.004 (at node 9)
	maximum = 0.018 (at node 13)
Injected flit rate average = 0.010875
	minimum = 0.004 (at node 6)
	maximum = 0.016 (at node 5)
Accepted flit rate average= 0.011
	minimum = 0.004 (at node 9)
	maximum = 0.018 (at node 13)
Injected packet length average = 1
Accepted packet length average = 1
Total in-flight flits = 4 (4 measured)
latency change    = 0.0826935
throughput change = 0.147727
Class 0:
Packet latency average = 24.4046
	minimum = 7
	maximum = 71
Network latency average = 24.4046
	minimum = 7
	maximum = 71
Slowest packet = 1028
Flit latency average = 24.4775
	minimum = 7
	maximum = 71
Slowest flit = 1028
Fragmentation average = 0
	minimum = 0
	maximum = 0
Injected packet rate average = 0.0109375
	minimum = 0.007 (at node 6)
	maximum = 0.015 (at node 5)
Accepted packet rate average = 0.011125
	minimum = 0.007 (at node 9)
	maximum = 0.015 (at node 5)
Injected flit rate average = 0.0109375
	minimum = 0.007 (at node 6)
	maximum = 0.015 (at node 5)
Accepted flit rate average= 0.011125
	minimum = 0.007 (at node 9)
	maximum = 0.015 (at node 5)
Injected packet length average = 1
Accepted packet length average = 1
Total in-flight flits = 2 (2 measured)
latency change    = 0.0200356
throughput change = 0.011236
Class 0:
Packet latency average = 23.8504
	minimum = 7
	maximum = 71
Network latency average = 23.8504
	minimum = 7
	maximum = 71
Slowest packet = 1028
Flit latency average = 23.9112
	minimum = 7
	maximum = 71
Slowest flit = 1028
Fragmentation average = 0
	minimum = 0
	maximum = 0
Injected packet rate average = 0.01075
	minimum = 0.00866667 (at node 2)
	maximum = 0.0153333 (at node 5)
Accepted packet rate average = 0.0107917
	minimum = 0.008 (at node 2)
	maximum = 0.0153333 (at node 5)
Injected flit rate average = 0.01075
	minimum = 0.00866667 (at node 2)
	maximum = 0.0153333 (at node 5)
Accepted flit rate average= 0.0107917
	minimum = 0.008 (at node 2)
	maximum = 0.0153333 (at node 5)
Injected packet length average = 1
Accepted packet length average = 1
Total in-flight flits = 4 (4 measured)
latency change    = 0.0232378
throughput change = 0.030888
Class 0:
Packet latency average = 24.061
	minimum = 7
	maximum = 71
Network latency average = 24.061
	minimum = 7
	maximum = 71
Slowest packet = 1028
Flit latency average = 24.1051
	minimum = 7
	maximum = 71
Slowest flit = 1028
Fragmentation average = 0
	minimum = 0
	maximum = 0
Injected packet rate average = 0.0104063
	minimum = 0.008 (at node 6)
	maximum = 0.015 (at node 3)
Accepted packet rate average = 0.0104063
	minimum = 0.008 (at node 9)
	maximum = 0.014 (at node 12)
Injected flit rate average = 0.0104063
	minimum = 0.008 (at node 6)
	maximum = 0.015 (at node 3)
Accepted flit rate average= 0.0104063
	minimum = 0.008 (at node 9)
	maximum = 0.014 (at node 12)
Injected packet length average = 1
Accepted packet length average = 1
Total in-flight flits = 5 (5 measured)
latency change    = 0.00875201
throughput change = 0.037037
Draining all recorded packets ...
Draining remaining packets ...
Time taken is 3590 cycles
Class 0:
Packet latency average = 23.7808
	minimum = 7
	maximum = 57
Network latency average = 23.7808
	minimum = 7
	maximum = 57
Slowest packet = 1300
Flit latency average = 23.7808
	minimum = 7
	maximum = 57
Slowest flit = 1300
Fragmentation average = 0
	minimum = 0
	maximum = 0
Injected packet rate average = 0.0095
	minimum = 0.002 (at node 11)
	maximum = 0.016 (at node 1)
Accepted packet rate average = 0.009125
	minimum = 0.002 (at node 14)
	maximum = 0.014 (at node 4)
Injected flit rate average = 0.0095
	minimum = 0.002 (at node 11)
	maximum = 0.016 (at node 1)
Accepted flit rate average= 0.009125
	minimum = 0.002 (at node 14)
	maximum = 0.014 (at node 4)
Injected packet length average = 1
Accepted packet length average = 1
Total in-flight flits = 3 (0 measured)
latency change    = 1
throughput change = 1
Class 0:
Packet latency average = 24.0424
	minimum = 7
	maximum = 66
Network latency average = 24.0424
	minimum = 7
	maximum = 66
Slowest packet = 1390
Flit latency average = 24.0424
	minimum = 7
	maximum = 66
Slowest flit = 1390
Fragmentation average = 0
	minimum = 0
	maximum = 0
Injected packet rate average = 0.0104375
	minimum = 0.006 (at node 5)
	maximum = 0.015 (at node 8)
Accepted packet rate average = 0.0103125
	minimum = 0.006 (at node 5)
	maximum = 0.015 (at node 15)
Injected flit rate average = 0.0104375
	minimum = 0.006 (at node 5)
	maximum = 0.015 (at node 8)
Accepted flit rate average= 0.0103125
	minimum = 0.006 (at node 5)
	maximum = 0.015 (at node 15)
Injected packet length average = 1
Accepted packet length average = 1
Total in-flight flits = 2 (0 measured)
latency change    = 0.0108809
throughput change = 0.115152
Class 0:
Packet latency average = 20.2826
	minimum = 7
	maximum = 65
Network latency average = 20.2826
	minimum = 7
	maximum = 65
Slowest packet = 1540
Flit latency average = 20.2826
	minimum = 7
	maximum = 65
Slowest flit = 1540
Fragmentation average = 0
	minimum = 0
	maximum = 0
Injected packet rate average = 0.0115
	minimum = 0 (at node 7)
	maximum = 0.024 (at node 0)
Accepted packet rate average = 0.0115
	minimum = 0 (at node 7)
	maximum = 0.024 (at node 0)
Injected flit rate average = 0.0115
	minimum = 0 (at node 7)
	maximum = 0.024 (at node 0)
Accepted flit rate average= 0.0115
	minimum = 0 (at node 7)
	maximum = 0.024 (at node 0)
Injected packet length average = 1
Accepted packet length average = 1
Total in-flight flits = 2 (0 measured)
latency change    = 0.185371
throughput change = 0.103261
Warmed up ...Time used is 1500 cycles
Class 0:
Packet latency average = 22.6484
	minimum = 7
	maximum = 64
Network latency average = 22.6484
	minimum = 7
	maximum = 64
Slowest packet = 1555
Flit latency average = 22.7742
	minimum = 7
	maximum = 64
Slowest flit = 1555
Fragmentation average = 0
	minimum = 0
	maximum = 0
Injected packet rate average = 0.01175
	minimum = 0.004 (at node 9)
	maximum = 0.022 (at node 14)
Accepted packet rate average = 0.011625
	minimum = 0.004 (at node 4)
	maximum = 0.022 (at node 11)
Injected flit rate average = 0.01175
	minimum = 0.004 (at node 9)
	maximum = 0.022 (at node 14)
Accepted flit rate average= 0.011625
	minimum = 0.004 (at node 4)
	maximum = 0.022 (at node 11)
Injected packet length average = 1
Accepted packet length average = 1
Total in-flight flits = 3 (3 measured)
latency change    = 0.104455
throughput change = 0.0107527
Class 0:
Packet latency average = 23.2069
	minimum = 7
	maximum = 64
Network latency average = 23.2069
	minimum = 7
	maximum = 64
Slowest packet = 1555
Flit latency average = 23.267
	minimum = 7
	maximum = 64
Slowest flit = 1555
Fragmentation average = 0
	minimum = 0
	maximum = 0
Injected packet rate average = 0.011375
	minimum = 0.005 (at node 3)
	maximum = 0.019 (at node 14)
Accepted packet rate average = 0.011
	minimum = 0.005 (at node 12)
	maximum = 0.019 (at node 11)
Injected flit rate average = 0.011375
	minimum = 0.005 (at node 3)
	maximum = 0.019 (at node 14)
Accepted flit rate average= 0.011
	minimum = 0.005 (at node 12)
	maximum = 0.019 (at node 11)
Injected packet length average = 1
Accepted packet length average = 1
Total in-flight flits = 8 (8 measured)
latency change    = 0.0240681
throughput change = 0.0568182
Class 0:
Packet latency average = 24.4387
	minimum = 7
	maximum = 64
Network latency average = 24.4387
	minimum = 7
	maximum = 64
Slowest packet = 1555
Flit latency average = 24.4686
	minimum = 7
	maximum = 64
Slowest flit = 1555
Fragmentation average = 0
	minimum = 0
	maximum = 0
Injected packet rate average = 0.0114167
	minimum = 0.00466667 (at node 1)
	maximum = 0.018 (at node 6)
Accepted packet rate average = 0.0112917
	minimum = 0.00466667 (at node 4)
	maximum = 0.018 (at node 9)
Injected flit rate average = 0.0114167
	minimum = 0.00466667 (at node 1)
	maximum = 0.018 (at node 6)
Accepted flit rate average= 0.0112917
	minimum = 0.00466667 (at node 4)
	maximum = 0.018 (at node 9)
Injected packet length average = 1
Accepted packet length average = 1
Total in-flight flits = 5 (5 measured)
latency change    = 0.0504023
throughput change = 0.0258303
Class 0:
Packet latency average = 24.0919
	minimum = 7
	maximum = 64
Network latency average = 24.0919
	minimum = 7
	maximum = 64
Slowest packet = 1555
Flit latency average = 24.1163
	minimum = 7
	maximum = 64
Slowest flit = 1555
Fragmentation average = 0
	minimum = 0
	maximum = 0
Injected packet rate average = 0.0113125
	minimum = 0.006 (at node 9)
	maximum = 0.0155 (at node 6)
Accepted packet rate average = 0.0112812
	minimum = 0.0065 (at node 6)
	maximum = 0.0155 (at node 9)
Injected flit rate average = 0.0113125
	minimum = 0.006 (at node 9)
	maximum = 0.0155 (at node 6)
Accepted flit rate average= 0.0112812
	minimum = 0.0065 (at node 6)
	maximum = 0.0155 (at node 9)
Injected packet length average = 1
Accepted packet length average = 1
Total in-flight flits = 3 (3 measured)
latency change    = 0.0143924
throughput change = 0.000923361
Class 0:
Packet latency average = 23.9434
	minimum = 7
	maximum = 64
Network latency average = 23.9434
	minimum = 7
	maximum = 64
Slowest packet = 1555
Flit latency average = 23.964
	minimum = 7
	maximum = 64
Slowest flit = 1555
Fragmentation average = 0
	minimum = 0
	maximum = 0
Injected packet rate average = 0.01105
	minimum = 0.0052 (at node 9)
	maximum = 0.0144 (at node 6)
Accepted packet rate average = 0.0111
	minimum = 0.0056 (at node 6)
	maximum = 0.0144 (at node 9)
Injected flit rate average = 0.01105
	minimum = 0.0052 (at node 9)
	maximum = 0.0144 (at node 6)
Accepted flit rate average= 0.0111
	minimum = 0.0056 (at node 6)
	maximum = 0.0144 (at node 9)
Injected packet length average = 1
Accepted packet length average = 1
Total in-flight flits = 0 (0 measured)
latency change    = 0.00620141
throughput change = 0.0163288
Class 0:
Packet latency average = 23.7778
	minimum = 7
	maximum = 64
Network latency average = 23.7778
	minimum = 7
	maximum = 64
Slowest packet = 1555
Flit latency average = 23.7961
	minimum = 7
	maximum = 64
Slowest flit = 1555
Fragmentation average = 0
	minimum = 0
	maximum = 0
Injected packet rate average = 0.0107708
	minimum = 0.005 (at node 9)
	maximum = 0.0143333 (at node 6)
Accepted packet rate average = 0.0107292
	minimum = 0.00533333 (at node 6)
	maximum = 0.0143333 (at node 9)
Injected flit rate average = 0.0107708
	minimum = 0.005 (at node 9)
	maximum = 0.0143333 (at node 6)
Accepted flit rate average= 0.0107292
	minimum = 0.00533333 (at node 6)
	maximum = 0.0143333 (at node 9)
Injected packet length average = 1
Accepted packet length average = 1
Total in-flight flits = 4 (4 measured)
latency change    = 0.00696706
throughput change = 0.0345631
Draining all recorded packets ...
Draining remaining packets ...
Time taken is 4567 cycles
Class 0:
Packet latency average = 23.5714
	minimum = 7
	maximum = 65
Network latency average = 23.5714
	minimum = 7
	maximum = 65
Slowest packet = 2072
Flit latency average = 23.5714
	minimum = 7
	maximum = 65
Slowest flit = 2072
Fragmentation average = 0
	minimum = 0
	maximum = 0
Injected packet rate average = 0.0095
	minimum = 0.004 (at node 3)
	maximum = 0.018 (at node 0)
Accepted packet rate average = 0.00875
	minimum = 0.004 (at node 2)
	maximum = 0.018 (at node 0)
Injected flit rate average = 0.0095
	minimum = 0.004 (at node 3)
	maximum = 0.018 (at node 0)
Accepted flit rate average= 0.00875
	minimum = 0.004 (at node 2)
	maximum = 0.018 (at node 0)
Injected packet length average = 1
Accepted packet length average = 1
Total in-flight flits = 6 (0 measured)
latency change    = 1
throughput change = 1
Class 0:
Packet latency average = 23.7325
	minimum = 7
	maximum = 65
Network latency average = 23.7325
	minimum = 7
	maximum = 65
Slowest packet = 2072
Flit latency average = 23.7325
	minimum = 7
	maximum = 65
Slowest flit = 2072
Fragmentation average = 0
	minimum = 0
	maximum = 0
Injected packet rate average = 0.0101875
	minimum = 0.004 (at node 6)
	maximum = 0.015 (at node 9)
Accepted packet rate average = 0.0098125
	minimum = 0.004 (at node 9)
	maximum = 0.015 (at node 6)
Injected flit rate average = 0.0101875
	minimum = 0.004 (at node 6)
	maximum = 0.015 (at node 9)
Accepted flit rate average= 0.0098125
	minimum = 0.004 (at node 9)
	maximum = 0.015 (at node 6)
Injected packet length average = 1
Accepted packet length average = 1
Total in-flight flits = 6 (0 measured)
latency change    = 0.00678629
throughput change = 0.10828
Class 0:
Packet latency average = 25
	minimum = 7
	maximum = 59
Network latency average = 25
	minimum = 7
	maximum = 59
Slowest packet = 2277
Flit latency average = 25
	minimum = 7
	maximum = 59
Slowest flit = 2277
Fragmentation average = 0
	minimum = 0
	maximum = 0
Injected packet rate average = 0.0095
	minimum = 0.004 (at node 8)
	maximum = 0.016 (at node 4)
Accepted packet rate average = 0.01
	minimum = 0.004 (at node 2)
	maximum = 0.016 (at node 1)
Injected flit rate average = 0.0095
	minimum = 0.004 (at node 8)
	maximum = 0.016 (at node 4)
Accepted flit rate average= 0.01
	minimum = 0.004 (at node 2)
	maximum = 0.016 (at node 1)
Injected packet length average = 1
Accepted packet length average = 1
Total in-flight flits = 2 (0 measured)
latency change    = 0.0507006
throughput change = 0.01875
Warmed up ...Time used is 1500 cycles
Class 0:
Packet latency average = 21.5205
	minimum = 7
	maximum = 57
Network latency average = 21.5205
	minimum = 7
	maximum = 57
Slowest packet = 2308
Flit latency average = 21.9333
	minimum = 7
	maximum = 57
Slowest flit = 2308
Fragmentation average = 0
	minimum = 0
	maximum = 0
Injected packet rate average = 0.009625
	minimum = 0 (at node 14)
	maximum = 0.022 (at node 5)
Accepted packet rate average = 0.009375
	minimum = 0 (at node 11)
	maximum = 0.022 (at node 5)
Injected flit rate average = 0.009625
	minimum = 0 (at node 14)
	maximum = 0.022 (at node 5)
Accepted flit rate average= 0.009375
	minimum = 0 (at node 11)
	maximum = 0.022 (at node 5)
Injected packet length average = 1
Accepted packet length average = 1
Total in-flight flits = 4 (4 measured)
latency change    = 0.16168
throughput change = 0.0666667
Class 0:
Packet latency average = 22.8182
	minimum = 7
	maximum = 60
Network latency average = 22.8182
	minimum = 7
	maximum = 60
Slowest packet = 2381
Flit latency average = 23
	minimum = 7
	maximum = 60
Slowest flit = 2381
Fragmentation average = 0
	minimum = 0
	maximum = 0
Injected packet rate average = 0.0096875
	minimum = 0.004 (at node 0)
	maximum = 0.015 (at node 5)
Accepted packet rate average = 0.00975
	minimum = 0.004 (at node 0)
	maximum = 0.015 (at node 5)
Injected flit rate average = 0.0096875
	minimum = 0.004 (at node 0)
	maximum = 0.015 (at node 5)
Accepted flit rate average= 0.00975
	minimum = 0.004 (at node 0)
	maximum = 0.015 (at node 5)
Injected packet length average = 1
Accepted packet length average = 1
Total in-flight flits = 1 (1 measured)
latency change    = 0.0568684
throughput change = 0.0384615
Class 0:
Packet latency average = 22.2258
	minimum = 7
	maximum = 60
Network latency average = 22.2258
	minimum = 7
	maximum = 60
Slowest packet = 2381
Flit latency average = 22.344
	minimum = 7
	maximum = 60
Slowest flit = 2381
Fragmentation average = 0
	minimum = 0
	maximum = 0
Injected packet rate average = 0.010375
	minimum = 0.006 (at node 3)
	maximum = 0.0126667 (at node 5)
Accepted packet rate average = 0.0104167
	minimum = 0.00666667 (at node 12)
	maximum = 0.0126667 (at node 5)
Injected flit rate average = 0.010375
	minimum = 0.006 (at node 3)
	maximum = 0.0126667 (at node 5)
Accepted flit rate average= 0.0104167
	minimum = 0.00666667 (at node 12)
	maximum = 0.0126667 (at node 5)
Injected packet length average = 1
Accepted packet length average = 1
Total in-flight flits = 1 (1 measured)
latency change    = 0.0266526
throughput change = 0.064
Class 0:
Packet latency average = 22.4054
	minimum = 7
	maximum = 61
Network latency average = 22.4054
	minimum = 7
	maximum = 61
Slowest packet = 2607
Flit latency average = 22.4925
	minimum = 7
	maximum = 61
Slowest flit = 2607
Fragmentation average = 0
	minimum = 0
	maximum = 0
Injected packet rate average = 0.0104375
	minimum = 0.0075 (at node 14)
	maximum = 0.0135 (at node 15)
Accepted packet rate average = 0.0104688
	minimum = 0.0075 (at node 11)
	maximum = 0.0135 (at node 15)
Injected flit rate average = 0.0104375
	minimum = 0.0075 (at node 14)
	maximum = 0.0135 (at node 15)
Accepted flit rate average= 0.0104688
	minimum = 0.0075 (at node 11)
	maximum = 0.0135 (at node 15)
Injected packet length average = 1
Accepted packet length average = 1
Total in-flight flits = 1 (1 measured)
latency change    = 0.00801588
throughput change = 0.00497512
Class 0:
Packet latency average = 23.1165
	minimum = 7
	maximum = 61
Network latency average = 23.1165
	minimum = 7
	maximum = 61
Slowest packet = 2607
Flit latency average = 23.1836
	minimum = 7
	maximum = 61
Slowest flit = 2607
Fragmentation average = 0
	minimum = 0
	maximum = 0
Injected packet rate average = 0.0104
	minimum = 0.0076 (at node 14)
	maximum = 0.0128 (at node 1)
Accepted packet rate average = 0.01035
	minimum = 0.0076 (at node 11)
	maximum = 0.0128 (at node 4)
Injected flit rate average = 0.0104
	minimum = 0.0076 (at node 14)
	maximum = 0.0128 (at node 1)
Accepted flit rate average= 0.01035
	minimum = 0.0076 (at node 11)
	maximum = 0.0128 (at node 4)
Injected packet length average = 1
Accepted packet length average = 1
Total in-flight flits = 4 (4 measured)
latency change    = 0.0307615
throughput change = 0.0114734
Class 0:
Packet latency average = 23.0377
	minimum = 7
	maximum = 61
Network latency average = 23.0377
	minimum = 7
	maximum = 61
Slowest packet = 2607
Flit latency average = 23.096
	minimum = 7
	maximum = 61
Slowest flit = 2607
Fragmentation average = 0
	minimum = 0
	maximum = 0
Injected packet rate average = 0.0100833
	minimum = 0.007 (at node 7)
	maximum = 0.0123333 (at node 8)
Accepted packet rate average = 0.00997917
	minimum = 0.00733333 (at node 13)
	maximum = 0.0123333 (at node 2)
Injected flit rate average = 0.0100833
	minimum = 0.007 (at node 7)
	maximum = 0.0123333 (at node 8)
Accepted flit rate average= 0.00997917
	minimum = 0.00733333 (at node 13)
	maximum = 0.0123333 (at node 2)
Injected packet length average = 1
Accepted packet length average = 1
Total in-flight flits = 7 (7 measured)
latency change    = 0.00341913
throughput change = 0.0371608
Draining all recorded packets ...
Draining remaining packets ...
Time taken is 4592 cycles
Class 0:
Packet latency average = 22.6957
	minimum = 7
	maximum = 57
Network latency average = 22.6957
	minimum = 7
	maximum = 57
Slowest packet = 2801
Flit latency average = 22.6957
	minimum = 7
	maximum = 57
Slowest flit = 2801
Fragmentation average = 0
	minimum = 0
	maximum = 0
Injected packet rate average = 0.009
	minimum = 0.002 (at node 8)
	maximum = 0.016 (at node 6)
Accepted packet rate average = 0.008625
	minimum = 0.002 (at node 2)
	maximum = 0.016 (at node 9)
Injected flit rate average = 0.009
	minimum = 0.002 (at node 8)
	maximum = 0.016 (at node 6)
Accepted flit rate average= 0.008625
	minimum = 0.002 (at node 2)
	maximum = 0.016 (at node 9)
Injected packet length average = 1
Accepted packet length average = 1
Total in-flight flits = 3 (0 measured)
latency change    = 1
throughput change = 1
Class 0:
Packet latency average = 21.8414
	minimum = 7
	maximum = 57
Network latency average = 21.8414
	minimum = 7
	maximum = 57
Slowest packet = 2801
Flit latency average = 21.8414
	minimum = 7
	maximum = 57
Slowest flit = 2801
Fragmentation average = 0
	minimum = 0
	maximum = 0
Injected packet rate average = 0.0091875
	minimum = 0.005 (at node 3)
	maximum = 0.012 (at node 0)
Accepted packet rate average = 0.0090625
	minimum = 0.004 (at node 12)
	maximum = 0.012 (at node 0)
Injected flit rate average = 0.0091875
	minimum = 0.005 (at node 3)
	maximum = 0.012 (at node 0)
Accepted flit rate average= 0.0090625
	minimum = 0.004 (at node 12)
	maximum = 0.012 (at node 0)
Injected packet length average = 1
Accepted packet length average = 1
Total in-flight flits = 2 (0 measured)
latency change    = 0.0391126
throughput change = 0.0482759
Class 0:
Packet latency average = 23.7714
	minimum = 7
	maximum = 61
Network latency average = 23.7714
	minimum = 7
	maximum = 61
Slowest packet = 2979
Flit latency average = 23.7714
	minimum = 7
	maximum = 61
Slowest flit = 2979
Fragmentation average = 0
	minimum = 0
	maximum = 0
Injected packet rate average = 0.009
	minimum = 0.004 (at node 13)
	maximum = 0.012 (at node 0)
Accepted packet rate average = 0.00875
	minimum = 0.004 (at node 11)
	maximum = 0.012 (at node 0)
Injected flit rate average = 0.009
	minimum = 0.004 (at node 13)
	maximum = 0.012 (at node 0)
Accepted flit rate average= 0.00875
	minimum = 0.004 (at node 11)
	maximum = 0.012 (at node 0)
Injected packet length average = 1
Accepted packet length average = 1
Total in-flight flits = 4 (0 measured)
latency change    = 0.081192
throughput change = 0.0357143
Warmed up ...Time used is 1500 cycles
Class 0:
Packet latency average = 26.95
	minimum = 7
	maximum = 59
Network latency average = 26.95
	minimum = 7
	maximum = 59
Slowest packet = 3052
Flit latency average = 27.4219
	minimum = 7
	maximum = 59
Slowest flit = 3052
Fragmentation average = 0
	minimum = 0
	maximum = 0
Injected packet rate average = 0.008
	minimum = 0.002 (at node 10)
	maximum = 0.018 (at node 12)
Accepted packet rate average = 0.008
	minimum = 0.002 (at node 10)
	maximum = 0.02 (at node 3)
Injected flit rate average = 0.008
	minimum = 0.002 (at node 10)
	maximum = 0.018 (at node 12)
Accepted flit rate average= 0.008
	minimum = 0.002 (at node 10)
	maximum = 0.02 (at node 3)
Injected packet length average = 1
Accepted packet length average = 1
Total in-flight flits = 4 (4 measured)
latency change    = 0.117943
throughput change = 0.09375
Class 0:
Packet latency average = 28.3699
	minimum = 7
	maximum = 66
Network latency average = 28.3699
	minimum = 7
	maximum = 66
Slowest packet = 3106
Flit latency average = 28.5333
	minimum = 7
	maximum = 66
Slowest flit = 3106
Fragmentation average = 0
	minimum = 0
	maximum = 0
Injected packet rate average = 0.0093125
	minimum = 0.004 (at node 0)
	maximum = 0.022 (at node 12)
Accepted packet rate average = 0.009375
	minimum = 0.004 (at node 0)
	maximum = 0.021 (at node 3)
Injected flit rate average = 0.0093125
	minimum = 0.004 (at node 0)
	maximum = 0.022 (at node 12)
Accepted flit rate average= 0.009375
	minimum = 0.004 (at node 0)
	maximum = 0.021 (at node 3)
Injected packet length average = 1
Accepted packet length average = 1
Total in-flight flits = 3 (3 measured)
latency change    = 0.0500483
throughput change = 0.146667
Class 0:
Packet latency average = 26.516
	minimum = 7
	maximum = 66
Network latency average = 26.516
	minimum = 7
	maximum = 66
Slowest packet = 3106
Flit latency average = 26.6592
	minimum = 7
	maximum = 66
Slowest flit = 3106
Fragmentation average = 0
	minimum = 0
	maximum = 0
Injected packet rate average = 0.00929167
	minimum = 0.006 (at node 4)
	maximum = 0.0186667 (at node 12)
Accepted packet rate average = 0.00929167
	minimum = 0.006 (at node 1)
	maximum = 0.0186667 (at node 3)
Injected flit rate average = 0.00929167
	minimum = 0.006 (at node 4)
	maximum = 0.0186667 (at node 12)
Accepted flit rate average= 0.00929167
	minimum = 0.006 (at node 1)
	maximum = 0.0186667 (at node 3)
Injected packet length average = 1
Accepted packet length average = 1
Total in-flight flits = 4 (4 measured)
latency change    = 0.0699156
throughput change = 0.00896861
Class 0:
Packet latency average = 25.4222
	minimum = 7
	maximum = 66
Network latency average = 25.4222
	minimum = 7
	maximum = 66
Slowest packet = 3106
Flit latency average = 25.5361
	minimum = 7
	maximum = 66
Slowest flit = 3106
Fragmentation average = 0
	minimum = 0
	maximum = 0
Injected packet rate average = 0.00996875
	minimum = 0.0065 (at node 4)
	maximum = 0.017 (at node 12)
Accepted packet rate average = 0.00996875
	minimum = 0.0065 (at node 1)
	maximum = 0.0175 (at node 3)
Injected flit rate average = 0.00996875
	minimum = 0.0065 (at node 4)
	maximum = 0.017 (at node 12)
Accepted flit rate average= 0.00996875
	minimum = 0.0065 (at node 1)
	maximum = 0.0175 (at node 3)
Injected packet length average = 1
Accepted packet length average = 1
Total in-flight flits = 4 (4 measured)
latency change    = 0.0430238
throughput change = 0.0679206
Class 0:
Packet latency average = 25.1194
	minimum = 7
	maximum = 66
Network latency average = 25.1194
	minimum = 7
	maximum = 66
Slowest packet = 3106
Flit latency average = 25.2118
	minimum = 7
	maximum = 66
Slowest flit = 3106
Fragmentation average = 0
	minimum = 0
	maximum = 0
Injected packet rate average = 0.0101
	minimum = 0.0076 (at node 0)
	maximum = 0.0156 (at node 12)
Accepted packet rate average = 0.01015
	minimum = 0.0076 (at node 0)
	maximum = 0.016 (at node 3)
Injected flit rate average = 0.0101
	minimum = 0.0076 (at node 0)
	maximum = 0.0156 (at node 12)
Accepted flit rate average= 0.01015
	minimum = 0.0076 (at node 0)
	maximum = 0.016 (at node 3)
Injected packet length average = 1
Accepted packet length average = 1
Total in-flight flits = 2 (2 measured)
latency change    = 0.0120552
throughput change = 0.0178571
Class 0:
Packet latency average = 24.8557
	minimum = 7
	maximum = 66
Network latency average = 24.8557
	minimum = 7
	maximum = 66
Slowest packet = 3106
Flit latency average = 24.9346
	minimum = 7
	maximum = 66
Slowest flit = 3106
Fragmentation average = 0
	minimum = 0
	maximum = 0
Injected packet rate average = 0.0101875
	minimum = 0.00733333 (at node 9)
	maximum = 0.014 (at node 12)
Accepted packet rate average = 0.0101875
	minimum = 0.00733333 (at node 6)
	maximum = 0.0143333 (at node 3)
Injected flit rate average = 0.0101875
	minimum = 0.00733333 (at node 9)
	maximum = 0.014 (at node 12)
Accepted flit rate average= 0.0101875
	minimum = 0.00733333 (at node 6)
	maximum = 0.0143333 (at node 3)
Injected packet length average = 1
Accepted packet length average = 1
Total in-flight flits = 4 (4 measured)
latency change    = 0.0106106
throughput change = 0.00368098
Class 0:
Packet latency average = 24.5443
	minimum = 7
	maximum = 66
Network latency average = 24.5443
	minimum = 7
	maximum = 66
Slowest packet = 3106
Flit latency average = 24.6144
	minimum = 7
	maximum = 66
Slowest flit = 3106
Fragmentation average = 0
	minimum = 0
	maximum = 0
Injected packet rate average = 0.010125
	minimum = 0.00742857 (at node 9)
	maximum = 0.0125714 (at node 12)
Accepted packet rate average = 0.0101429
	minimum = 0.00742857 (at node 6)
	maximum = 0.0128571 (at node 3)
Injected flit rate average = 0.010125
	minimum = 0.00742857 (at node 9)
	maximum = 0.0125714 (at node 12)
Accepted flit rate average= 0.0101429
	minimum = 0.00742857 (at node 6)
	maximum = 0.0128571 (at node 3)
Injected packet length average = 1
Accepted packet length average = 1
Total in-flight flits = 3 (3 measured)
latency change    = 0.012685
throughput change = 0.00440141
Draining all recorded packets ...
Draining remaining packets ...
Time taken is 5064 cycles
Class 0:
Packet latency average = 22.8481
	minimum = 7
	maximum = 57
Network latency average = 22.8481
	minimum = 7
	maximum = 57
Slowest packet = 3621
Flit latency average = 22.8481
	minimum = 7
	maximum = 57
Slowest flit = 3621
Fragmentation average = 0
	minimum = 0
	maximum = 0
Injected packet rate average = 0.010625
	minimum = 0.002 (at node 10)
	maximum = 0.018 (at node 9)
Accepted packet rate average = 0.009875
	minimum = 0.002 (at node 10)
	maximum = 0.018 (at node 14)
Injected flit rate average = 0.010625
	minimum = 0.002 (at node 10)
	maximum = 0.018 (at node 9)
Accepted flit rate average= 0.009875
	minimum = 0.002 (at node 10)
	maximum = 0.018 (at node 14)
Injected packet length average = 1
Accepted packet length average = 1
Total in-flight flits = 6 (0 measured)
latency change    = 1
throughput change = 1
Class 0:
Packet latency average = 24.434
	minimum = 7
	maximum = 70
Network latency average = 24.434
	minimum = 7
	maximum = 70
Slowest packet = 3675
Flit latency average = 24.434
	minimum = 7
	maximum = 70
Slowest flit = 3675
Fragmentation average = 0
	minimum = 0
	maximum = 0
Injected packet rate average = 0.0100625
	minimum = 0.005 (at node 2)
	maximum = 0.016 (at node 13)
Accepted packet rate average = 0.0099375
	minimum = 0.005 (at node 8)
	maximum = 0.015 (at node 7)
Injected flit rate average = 0.0100625
	minimum = 0.005 (at node 2)
	maximum = 0.016 (at node 13)
Accepted flit rate average= 0.0099375
	minimum = 0.005 (at node 8)
	maximum = 0.015 (at node 7)
Injected packet length average = 1
Accepted packet length average = 1
Total in-flight flits = 2 (0 measured)
latency change    = 0.064904
throughput change = 0.00628931
Class 0:
Packet latency average = 23.9157
	minimum = 7
	maximum = 61
Network latency average = 23.9157
	minimum = 7
	maximum = 61
Slowest packet = 3756
Flit latency average = 23.9157
	minimum = 7
	maximum = 61
Slowest flit = 3756
Fragmentation average = 0
	minimum = 0
	maximum = 0
Injected packet rate average = 0.010375
	minimum = 0.002 (at node 1)
	maximum = 0.018 (at node 8)
Accepted packet rate average = 0.010375
	minimum = 0.002 (at node 4)
	maximum = 0.016 (at node 2)
Injected flit rate average = 0.010375
	minimum = 0.002 (at node 1)
	maximum = 0.018 (at node 8)
Accepted flit rate average= 0.010375
	minimum = 0.002 (at node 4)
	maximum = 0.016 (at node 2)
Injected packet length average = 1
Accepted packet length average = 1
Total in-flight flits = 2 (0 measured)
latency change    = 0.021672
throughput change = 0.0421687
Warmed up ...Time used is 1500 cycles
Class 0:
Packet latency average = 24.8983
	minimum = 7
	maximum = 66
Network latency average = 24.8983
	minimum = 7
	maximum = 66
Slowest packet = 3878
Flit latency average = 24.8033
	minimum = 7
	maximum = 66
Slowest flit = 3878
Fragmentation average = 0
	minimum = 0
	maximum = 0
Injected packet rate average = 0.0075
	minimum = 0 (at node 0)
	maximum = 0.016 (at node 4)
Accepted packet rate average = 0.007625
	minimum = 0 (at node 0)
	maximum = 0.016 (at node 1)
Injected flit rate average = 0.0075
	minimum = 0 (at node 0)
	maximum = 0.016 (at node 4)
Accepted flit rate average= 0.007625
	minimum = 0 (at node 0)
	maximum = 0.016 (at node 1)
Injected packet length average = 1
Accepted packet length average = 1
Total in-flight flits = 1 (1 measured)
latency change    = 0.0394662
throughput change = 0.360656
Class 0:
Packet latency average = 23.8984
	minimum = 7
	maximum = 66
Network latency average = 23.8984
	minimum = 7
	maximum = 66
Slowest packet = 3878
Flit latency average = 23.8692
	minimum = 7
	maximum = 66
Slowest flit = 3878
Fragmentation average = 0
	minimum = 0
	maximum = 0
Injected packet rate average = 0.0083125
	minimum = 0.003 (at node 0)
	maximum = 0.014 (at node 4)
Accepted packet rate average = 0.008125
	minimum = 0.003 (at node 0)
	maximum = 0.014 (at node 1)
Injected flit rate average = 0.0083125
	minimum = 0.003 (at node 0)
	maximum = 0.014 (at node 4)
Accepted flit rate average= 0.008125
	minimum = 0.003 (at node 0)
	maximum = 0.014 (at node 1)
Injected packet length average = 1
Accepted packet length average = 1
Total in-flight flits = 5 (5 measured)
latency change    = 0.0418382
throughput change = 0.0615385
Class 0:
Packet latency average = 24.625
	minimum = 7
	maximum = 66
Network latency average = 24.625
	minimum = 7
	maximum = 66
Slowest packet = 3878
Flit latency average = 24.6
	minimum = 7
	maximum = 66
Slowest flit = 3878
Fragmentation average = 0
	minimum = 0
	maximum = 0
Injected packet rate average = 0.00875
	minimum = 0.00466667 (at node 5)
	maximum = 0.0126667 (at node 9)
Accepted packet rate average = 0.00875
	minimum = 0.00466667 (at node 5)
	maximum = 0.012 (at node 3)
Injected flit rate average = 0.00875
	minimum = 0.00466667 (at node 5)
	maximum = 0.0126667 (at node 9)
Accepted flit rate average= 0.00875
	minimum = 0.00466667 (at node 5)
	maximum = 0.012 (at node 3)
Injected packet length average = 1
Accepted packet length average = 1
Total in-flight flits = 2 (2 measured)
latency change    = 0.0295051
throughput change = 0.0714286
Class 0:
Packet latency average = 24.786
	minimum = 7
	maximum = 66
Network latency average = 24.786
	minimum = 7
	maximum = 66
Slowest packet = 3878
Flit latency average = 24.7666
	minimum = 7
	maximum = 66
Slowest flit = 3878
Fragmentation average = 0
	minimum = 0
	maximum = 0
Injected packet rate average = 0.0090625
	minimum = 0.0035 (at node 5)
	maximum = 0.013 (at node 12)
Accepted packet rate average = 0.00896875
	minimum = 0.0035 (at node 5)
	maximum = 0.013 (at node 3)
Injected flit rate average = 0.0090625
	minimum = 0.0035 (at node 5)
	maximum = 0.013 (at node 12)
Accepted flit rate average= 0.00896875
	minimum = 0.0035 (at node 5)
	maximum = 0.013 (at node 3)
Injected packet length average = 1
Accepted packet length average = 1
Total in-flight flits = 5 (5 measured)
latency change    = 0.0064942
throughput change = 0.0243902
Class 0:
Packet latency average = 25.0699
	minimum = 7
	maximum = 66
Network latency average = 25.0699
	minimum = 7
	maximum = 66
Slowest packet = 3878
Flit latency average = 25.0535
	minimum = 7
	maximum = 66
Slowest flit = 3878
Fragmentation average = 0
	minimum = 0
	maximum = 0
Injected packet rate average = 0.009375
	minimum = 0.0044 (at node 5)
	maximum = 0.012 (at node 8)
Accepted packet rate average = 0.00935
	minimum = 0.0044 (at node 5)
	maximum = 0.0124 (at node 2)
Injected flit rate average = 0.009375
	minimum = 0.0044 (at node 5)
	maximum = 0.012 (at node 8)
Accepted flit rate average= 0.00935
	minimum = 0.0044 (at node 5)
	maximum = 0.0124 (at node 2)
Injected packet length average = 1
Accepted packet length average = 1
Total in-flight flits = 3 (3 measured)
latency change    = 0.0113254
throughput change = 0.0407754
Class 0:
Packet latency average = 24.649
	minimum = 7
	maximum = 66
Network latency average = 24.649
	minimum = 7
	maximum = 66
Slowest packet = 3878
Flit latency average = 24.6374
	minimum = 7
	maximum = 66
Slowest flit = 3878
Fragmentation average = 0
	minimum = 0
	maximum = 0
Injected packet rate average = 0.0095
	minimum = 0.00433333 (at node 5)
	maximum = 0.0133333 (at node 4)
Accepted packet rate average = 0.00947917
	minimum = 0.00433333 (at node 5)
	maximum = 0.0133333 (at node 1)
Injected flit rate average = 0.0095
	minimum = 0.00433333 (at node 5)
	maximum = 0.0133333 (at node 4)
Accepted flit rate average= 0.00947917
	minimum = 0.00433333 (at node 5)
	maximum = 0.0133333 (at node 1)
Injected packet length average = 1
Accepted packet length average = 1
Total in-flight flits = 3 (3 measured)
latency change    = 0.0170752
throughput change = 0.0136264
Draining all recorded packets ...
Draining remaining packets ...
Time taken is 4525 cycles
Class 0:
Packet latency average = 22.1098
	minimum = 7
	maximum = 63
Network latency average = 22.1098
	minimum = 7
	maximum = 63
Slowest packet = 4345
Flit latency average = 22.1098
	minimum = 7
	maximum = 63
Slowest flit = 4345
Fragmentation average = 0
	minimum = 0
	maximum = 0
Injected packet rate average = 0.010375
	minimum = 0.006 (at node 8)
	maximum = 0.018 (at node 10)
Accepted packet rate average = 0.01025
	minimum = 0.006 (at node 2)
	maximum = 0.018 (at node 10)
Injected flit rate average = 0.010375
	minimum = 0.006 (at node 8)
	maximum = 0.018 (at node 10)
Accepted flit rate average= 0.01025
	minimum = 0.006 (at node 2)
	maximum = 0.018 (at node 10)
Injected packet length average = 1
Accepted packet length average = 1
Total in-flight flits = 1 (0 measured)
latency change    = 1
throughput change = 1
Class 0:
Packet latency average = 23.7011
	minimum = 7
	maximum = 63
Network latency average = 23.7011
	minimum = 7
	maximum = 63
Slowest packet = 4345
Flit latency average = 23.7011
	minimum = 7
	maximum = 63
Slowest flit = 4345
Fragmentation average = 0
	minimum = 0
	maximum = 0
Injected packet rate average = 0.0109375
	minimum = 0.007 (at node 8)
	maximum = 0.015 (at node 10)
Accepted packet rate average = 0.010875
	minimum = 0.007 (at node 2)
	maximum = 0.015 (at node 10)
Injected flit rate average = 0.0109375
	minimum = 0.007 (at node 8)
	maximum = 0.015 (at node 10)
Accepted flit rate average= 0.010875
	minimum = 0.007 (at node 2)
	maximum = 0.015 (at node 10)
Injected packet length average = 1
Accepted packet length average = 1
Total in-flight flits = 1 (0 measured)
latency change    = 0.0671441
throughput change = 0.0574713
Class 0:
Packet latency average = 23.3976
	minimum = 7
	maximum = 58
Network latency average = 23.3976
	minimum = 7
	maximum = 58
Slowest packet = 4503
Flit latency average = 23.3976
	minimum = 7
	maximum = 58
Slowest flit = 4503
Fragmentation average = 0
	minimum = 0
	maximum = 0
Injected packet rate average = 0.010875
	minimum = 0.002 (at node 9)
	maximum = 0.018 (at node 2)
Accepted packet rate average = 0.010375
	minimum = 0.002 (at node 6)
	maximum = 0.018 (at node 10)
Injected flit rate average = 0.010875
	minimum = 0.002 (at node 9)
	maximum = 0.018 (at node 2)
Accepted flit rate average= 0.010375
	minimum = 0.002 (at node 6)
	maximum = 0.018 (at node 10)
Injected packet length average = 1
Accepted packet length average = 1
Total in-flight flits = 5 (0 measured)
latency change    = 0.0129739
throughput change = 0.0481928
Warmed up ...Time used is 1500 cycles
Class 0:
Packet latency average = 21.2842
	minimum = 7
	maximum = 62
Network latency average = 21.2842
	minimum = 7
	maximum = 62
Slowest packet = 4607
Flit latency average = 22.1
	minimum = 7
	maximum = 62
Slowest flit = 4607
Fragmentation average = 0
	minimum = 0
	maximum = 0
Injected packet rate average = 0.01225
	minimum = 0.002 (at node 6)
	maximum = 0.024 (at node 15)
Accepted packet rate average = 0.0125
	minimum = 0.004 (at node 9)
	maximum = 0.024 (at node 15)
Injected flit rate average = 0.01225
	minimum = 0.002 (at node 6)
	maximum = 0.024 (at node 15)
Accepted flit rate average= 0.0125
	minimum = 0.004 (at node 9)
	maximum = 0.024 (at node 15)
Injected packet length average = 1
Accepted packet length average = 1
Total in-flight flits = 3 (3 measured)
latency change    = 0.0992933
throughput change = 0.17
Class 0:
Packet latency average = 21.4578
	minimum = 7
	maximum = 62
Network latency average = 21.4578
	minimum = 7
	maximum = 62
Slowest packet = 4607
Flit latency average = 21.9298
	minimum = 7
	maximum = 62
Slowest flit = 4607
Fragmentation average = 0
	minimum = 0
	maximum = 0
Injected packet rate average = 0.010625
	minimum = 0.004 (at node 12)
	maximum = 0.016 (at node 14)
Accepted packet rate average = 0.0106875
	minimum = 0.005 (at node 3)
	maximum = 0.016 (at node 11)
Injected flit rate average = 0.010625
	minimum = 0.004 (at node 12)
	maximum = 0.016 (at node 14)
Accepted flit rate average= 0.0106875
	minimum = 0.005 (at node 3)
	maximum = 0.016 (at node 11)
Injected packet length average = 1
Accepted packet length average = 1
Total in-flight flits = 4 (4 measured)
latency change    = 0.00809126
throughput change = 0.169591
Class 0:
Packet latency average = 22.7247
	minimum = 7
	maximum = 62
Network latency average = 22.7247
	minimum = 7
	maximum = 62
Slowest packet = 4607
Flit latency average = 23.0198
	minimum = 7
	maximum = 62
Slowest flit = 4607
Fragmentation average = 0
	minimum = 0
	maximum = 0
Injected packet rate average = 0.0104583
	minimum = 0.00533333 (at node 5)
	maximum = 0.0153333 (at node 4)
Accepted packet rate average = 0.0105
	minimum = 0.00533333 (at node 5)
	maximum = 0.0153333 (at node 1)
Injected flit rate average = 0.0104583
	minimum = 0.00533333 (at node 5)
	maximum = 0.0153333 (at node 4)
Accepted flit rate average= 0.0105
	minimum = 0.00533333 (at node 5)
	maximum = 0.0153333 (at node 1)
Injected packet length average = 1
Accepted packet length average = 1
Total in-flight flits = 4 (4 measured)
latency change    = 0.0557484
throughput change = 0.0178571
Class 0:
Packet latency average = 22.9611
	minimum = 7
	maximum = 65
Network latency average = 22.9611
	minimum = 7
	maximum = 65
Slowest packet = 4846
Flit latency average = 23.177
	minimum = 7
	maximum = 65
Slowest flit = 4846
Fragmentation average = 0
	minimum = 0
	maximum = 0
Injected packet rate average = 0.0106563
	minimum = 0.0075 (at node 5)
	maximum = 0.015 (at node 4)
Accepted packet rate average = 0.0105938
	minimum = 0.0065 (at node 7)
	maximum = 0.015 (at node 1)
Injected flit rate average = 0.0106563
	minimum = 0.0075 (at node 5)
	maximum = 0.015 (at node 4)
Accepted flit rate average= 0.0105938
	minimum = 0.0065 (at node 7)
	maximum = 0.015 (at node 1)
Injected packet length average = 1
Accepted packet length average = 1
Total in-flight flits = 7 (7 measured)
latency change    = 0.0102949
throughput change = 0.00884956
Class 0:
Packet latency average = 22.8054
	minimum = 7
	maximum = 65
Network latency average = 22.8054
	minimum = 7
	maximum = 65
Slowest packet = 4846
Flit latency average = 22.9854
	minimum = 7
	maximum = 65
Slowest flit = 4846
Fragmentation average = 0
	minimum = 0
	maximum = 0
Injected packet rate average = 0.01025
	minimum = 0.0072 (at node 7)
	maximum = 0.014 (at node 14)
Accepted packet rate average = 0.010275
	minimum = 0.0072 (at node 5)
	maximum = 0.014 (at node 11)
Injected flit rate average = 0.01025
	minimum = 0.0072 (at node 7)
	maximum = 0.014 (at node 14)
Accepted flit rate average= 0.010275
	minimum = 0.0072 (at node 5)
	maximum = 0.014 (at node 11)
Injected packet length average = 1
Accepted packet length average = 1
Total in-flight flits = 4 (4 measured)
latency change    = 0.00682553
throughput change = 0.0310219
Class 0:
Packet latency average = 23.0505
	minimum = 7
	maximum = 65
Network latency average = 23.0505
	minimum = 7
	maximum = 65
Slowest packet = 4846
Flit latency average = 23.196
	minimum = 7
	maximum = 65
Slowest flit = 4846
Fragmentation average = 0
	minimum = 0
	maximum = 0
Injected packet rate average = 0.0103333
	minimum = 0.007 (at node 13)
	maximum = 0.0136667 (at node 14)
Accepted packet rate average = 0.0104167
	minimum = 0.007 (at node 7)
	maximum = 0.0136667 (at node 11)
Injected flit rate average = 0.0103333
	minimum = 0.007 (at node 13)
	maximum = 0.0136667 (at node 14)
Accepted flit rate average= 0.0104167
	minimum = 0.007 (at node 7)
	maximum = 0.0136667 (at node 11)
Injected packet length average = 1
Accepted packet length average = 1
Total in-flight flits = 1 (1 measured)
latency change    = 0.0106326
throughput change = 0.0136
Draining all recorded packets ...
Draining remaining packets ...
Time taken is 4522 cycles
Class 0:
Packet latency average = 19.3226
	minimum = 7
	maximum = 60
Network latency average = 19.3226
	minimum = 7
	maximum = 60
Slowest packet = 5088
Flit latency average = 19.3226
	minimum = 7
	maximum = 60
Slowest flit = 5088
Fragmentation average = 0
	minimum = 0
	maximum = 0
Injected packet rate average = 0.008625
	minimum = 0.002 (at node 7)
	maximum = 0.016 (at node 9)
Accepted packet rate average = 0.00775
	minimum = 0 (at node 13)
	maximum = 0.016 (at node 6)
Injected flit rate average = 0.008625
	minimum = 0.002 (at node 7)
	maximum = 0.016 (at node 9)
Accepted flit rate average= 0.00775
	minimum = 0 (at node 13)
	maximum = 0.016 (at node 6)
Injected packet length average = 1
Accepted packet length average = 1
Total in-flight flits = 7 (0 measured)
latency change    = 1
throughput change = 1
Class 0:
Packet latency average = 24.2318
	minimum = 7
	maximum = 76
Network latency average = 24.2318
	minimum = 7
	maximum = 76
Slowest packet = 5117
Flit latency average = 24.2318
	minimum = 7
	maximum = 76
Slowest flit = 5117
Fragmentation average = 0
	minimum = 0
	maximum = 0
Injected packet rate average = 0.0095625
	minimum = 0.003 (at node 0)
	maximum = 0.017 (at node 9)
Accepted packet rate average = 0.0094375
	minimum = 0.003 (at node 0)
	maximum = 0.017 (at node 6)
Injected flit rate average = 0.0095625
	minimum = 0.003 (at node 0)
	maximum = 0.017 (at node 9)
Accepted flit rate average= 0.0094375
	minimum = 0.003 (at node 0)
	maximum = 0.017 (at node 6)
Injected packet length average = 1
Accepted packet length average = 1
Total in-flight flits = 2 (0 measured)
latency change    = 0.202594
throughput change = 0.178808
Class 0:
Packet latency average = 24.0225
	minimum = 7
	maximum = 67
Network latency average = 24.0225
	minimum = 7
	maximum = 67
Slowest packet = 5247
Flit latency average = 24.0225
	minimum = 7
	maximum = 67
Slowest flit = 5247
Fragmentation average = 0
	minimum = 0
	maximum = 0
Injected packet rate average = 0.011375
	minimum = 0.004 (at node 0)
	maximum = 0.02 (at node 15)
Accepted packet rate average = 0.011125
	minimum = 0.004 (at node 0)
	maximum = 0.02 (at node 15)
Injected flit rate average = 0.011375
	minimum = 0.004 (at node 0)
	maximum = 0.02 (at node 15)
Accepted flit rate average= 0.011125
	minimum = 0.004 (at node 0)
	maximum = 0.02 (at node 15)
Injected packet length average = 1
Accepted packet length average = 1
Total in-flight flits = 4 (0 measured)
latency change    = 0.00871335
throughput change = 0.151685
Warmed up ...Time used is 1500 cycles
Class 0:
Packet latency average = 24.2308
	minimum = 7
	maximum = 57
Network latency average = 24.2308
	minimum = 7
	maximum = 57
Slowest packet = 5299
Flit latency average = 24.8537
	minimum = 7
	maximum = 57
Slowest flit = 5288
Fragmentation average = 0
	minimum = 0
	maximum = 0
Injected packet rate average = 0.010125
	minimum = 0.002 (at node 0)
	maximum = 0.018 (at node 1)
Accepted packet rate average = 0.01025
	minimum = 0.002 (at node 0)
	maximum = 0.018 (at node 4)
Injected flit rate average = 0.010125
	minimum = 0.002 (at node 0)
	maximum = 0.018 (at node 1)
Accepted flit rate average= 0.01025
	minimum = 0.002 (at node 0)
	maximum = 0.018 (at node 4)
Injected packet length average = 1
Accepted packet length average = 1
Total in-flight flits = 3 (3 measured)
latency change    = 0.0085964
throughput change = 0.0853659
Class 0:
Packet latency average = 23.1103
	minimum = 7
	maximum = 65
Network latency average = 23.1103
	minimum = 7
	maximum = 65
Slowest packet = 5416
Flit latency average = 23.4832
	minimum = 7
	maximum = 65
Slowest flit = 5416
Fragmentation average = 0
	minimum = 0
	maximum = 0
Injected packet rate average = 0.0091875
	minimum = 0.005 (at node 9)
	maximum = 0.017 (at node 11)
Accepted packet rate average = 0.0093125
	minimum = 0.005 (at node 6)
	maximum = 0.016 (at node 14)
Injected flit rate average = 0.0091875
	minimum = 0.005 (at node 9)
	maximum = 0.017 (at node 11)
Accepted flit rate average= 0.0093125
	minimum = 0.005 (at node 6)
	maximum = 0.016 (at node 14)
Injected packet length average = 1
Accepted packet length average = 1
Total in-flight flits = 2 (2 measured)
latency change    = 0.0484815
throughput change = 0.100671
Class 0:
Packet latency average = 23.292
	minimum = 7
	maximum = 65
Network latency average = 23.292
	minimum = 7
	maximum = 65
Slowest packet = 5416
Flit latency average = 23.5304
	minimum = 7
	maximum = 65
Slowest flit = 5416
Fragmentation average = 0
	minimum = 0
	maximum = 0
Injected packet rate average = 0.00954167
	minimum = 0.00533333 (at node 14)
	maximum = 0.018 (at node 11)
Accepted packet rate average = 0.00958333
	minimum = 0.00466667 (at node 11)
	maximum = 0.018 (at node 14)
Injected flit rate average = 0.00954167
	minimum = 0.00533333 (at node 14)
	maximum = 0.018 (at node 11)
Accepted flit rate average= 0.00958333
	minimum = 0.00466667 (at node 11)
	maximum = 0.018 (at node 14)
Injected packet length average = 1
Accepted packet length average = 1
Total in-flight flits = 3 (3 measured)
latency change    = 0.00780055
throughput change = 0.0282609
Class 0:
Packet latency average = 23.1429
	minimum = 7
	maximum = 65
Network latency average = 23.1429
	minimum = 7
	maximum = 65
Slowest packet = 5416
Flit latency average = 23.3246
	minimum = 7
	maximum = 65
Slowest flit = 5416
Fragmentation average = 0
	minimum = 0
	maximum = 0
Injected packet rate average = 0.00946875
	minimum = 0.007 (at node 12)
	maximum = 0.0165 (at node 11)
Accepted packet rate average = 0.00953125
	minimum = 0.007 (at node 3)
	maximum = 0.0165 (at node 14)
Injected flit rate average = 0.00946875
	minimum = 0.007 (at node 12)
	maximum = 0.0165 (at node 11)
Accepted flit rate average= 0.00953125
	minimum = 0.007 (at node 3)
	maximum = 0.0165 (at node 14)
Injected packet length average = 1
Accepted packet length average = 1
Total in-flight flits = 2 (2 measured)
latency change    = 0.00644597
throughput change = 0.00546448
Class 0:
Packet latency average = 23.1076
	minimum = 7
	maximum = 72
Network latency average = 23.1076
	minimum = 7
	maximum = 72
Slowest packet = 5601
Flit latency average = 23.2519
	minimum = 7
	maximum = 72
Slowest flit = 5601
Fragmentation average = 0
	minimum = 0
	maximum = 0
Injected packet rate average = 0.009575
	minimum = 0.0068 (at node 3)
	maximum = 0.0156 (at node 11)
Accepted packet rate average = 0.009625
	minimum = 0.0068 (at node 12)
	maximum = 0.0156 (at node 14)
Injected flit rate average = 0.009575
	minimum = 0.0068 (at node 3)
	maximum = 0.0156 (at node 11)
Accepted flit rate average= 0.009625
	minimum = 0.0068 (at node 12)
	maximum = 0.0156 (at node 14)
Injected packet length average = 1
Accepted packet length average = 1
Total in-flight flits = 2 (2 measured)
latency change    = 0.00152528
throughput change = 0.00974026
Draining all recorded packets ...
Draining remaining packets ...
Time taken is 4008 cycles
Class 0:
Packet latency average = 23.7432
	minimum = 7
	maximum = 58
Network latency average = 23.7432
	minimum = 7
	maximum = 58
Slowest packet = 5689
Flit latency average = 23.7432
	minimum = 7
	maximum = 58
Slowest flit = 5689
Fragmentation average = 0
	minimum = 0
	maximum = 0
Injected packet rate average = 0.01
	minimum = 0.002 (at node 0)
	maximum = 0.018 (at node 3)
Accepted packet rate average = 0.00925
	minimum = 0.002 (at node 0)
	maximum = 0.016 (at node 4)
Injected flit rate average = 0.01
	minimum = 0.002 (at node 0)
	maximum = 0.018 (at node 3)
Accepted flit rate average= 0.00925
	minimum = 0.002 (at node 0)
	maximum = 0.016 (at node 4)
Injected packet length average = 1
Accepted packet length average = 1
Total in-flight flits = 6 (0 measured)
latency change    = 1
throughput change = 1
Class 0:
Packet latency average = 24.2067
	minimum = 7
	maximum = 59
Network latency average = 24.2067
	minimum = 7
	maximum = 59
Slowest packet = 5773
Flit latency average = 24.2067
	minimum = 7
	maximum = 59
Slowest flit = 5773
Fragmentation average = 0
	minimum = 0
	maximum = 0
Injected packet rate average = 0.0094375
	minimum = 0.006 (at node 0)
	maximum = 0.014 (at node 3)
Accepted packet rate average = 0.009375
	minimum = 0.006 (at node 0)
	maximum = 0.014 (at node 10)
Injected flit rate average = 0.0094375
	minimum = 0.006 (at node 0)
	maximum = 0.014 (at node 3)
Accepted flit rate average= 0.009375
	minimum = 0.006 (at node 0)
	maximum = 0.014 (at node 10)
Injected packet length average = 1
Accepted packet length average = 1
Total in-flight flits = 1 (0 measured)
latency change    = 0.0191445
throughput change = 0.0133333
Class 0:
Packet latency average = 21.9437
	minimum = 7
	maximum = 57
Network latency average = 21.9437
	minimum = 7
	maximum = 57
Slowest packet = 5834
Flit latency average = 21.9437
	minimum = 7
	maximum = 57
Slowest flit = 5834
Fragmentation average = 0
	minimum = 0
	maximum = 0
Injected packet rate average = 0.009
	minimum = 0 (at node 6)
	maximum = 0.016 (at node 15)
Accepted packet rate average = 0.008875
	minimum = 0 (at node 9)
	maximum = 0.016 (at node 15)
Injected flit rate average = 0.009
	minimum = 0 (at node 6)
	maximum = 0.016 (at node 15)
Accepted flit rate average= 0.008875
	minimum = 0 (at node 9)
	maximum = 0.016 (at node 15)
Injected packet length average = 1
Accepted packet length average = 1
Total in-flight flits = 2 (0 measured)
latency change    = 0.103128
throughput change = 0.056338
Warmed up ...Time used is 1500 cycles
Class 0:
Packet latency average = 21.1375
	minimum = 7
	maximum = 57
Network latency average = 21.1375
	minimum = 7
	maximum = 57
Slowest packet = 5969
Flit latency average = 21.1585
	minimum = 7
	maximum = 57
Slowest flit = 5969
Fragmentation average = 0
	minimum = 0
	maximum = 0
Injected packet rate average = 0.010875
	minimum = 0.002 (at node 15)
	maximum = 0.022 (at node 7)
Accepted packet rate average = 0.01025
	minimum = 0.002 (at node 3)
	maximum = 0.02 (at node 13)
Injected flit rate average = 0.010875
	minimum = 0.002 (at node 15)
	maximum = 0.022 (at node 7)
Accepted flit rate average= 0.01025
	minimum = 0.002 (at node 3)
	maximum = 0.02 (at node 13)
Injected packet length average = 1
Accepted packet length average = 1
Total in-flight flits = 7 (7 measured)
latency change    = 0.0381389
throughput change = 0.134146
Class 0:
Packet latency average = 21.6981
	minimum = 7
	maximum = 57
Network latency average = 21.6981
	minimum = 7
	maximum = 57
Slowest packet = 5969
Flit latency average = 21.7019
	minimum = 7
	maximum = 57
Slowest flit = 5969
Fragmentation average = 0
	minimum = 0
	maximum = 0
Injected packet rate average = 0.0100625
	minimum = 0.005 (at node 11)
	maximum = 0.017 (at node 7)
Accepted packet rate average = 0.0100625
	minimum = 0.005 (at node 3)
	maximum = 0.018 (at node 13)
Injected flit rate average = 0.0100625
	minimum = 0.005 (at node 11)
	maximum = 0.017 (at node 7)
Accepted flit rate average= 0.0100625
	minimum = 0.005 (at node 3)
	maximum = 0.018 (at node 13)
Injected packet length average = 1
Accepted packet length average = 1
Total in-flight flits = 2 (2 measured)
latency change    = 0.025837
throughput change = 0.0186335
Class 0:
Packet latency average = 21.7897
	minimum = 7
	maximum = 65
Network latency average = 21.7897
	minimum = 7
	maximum = 65
Slowest packet = 6084
Flit latency average = 21.7915
	minimum = 7
	maximum = 65
Slowest flit = 6084
Fragmentation average = 0
	minimum = 0
	maximum = 0
Injected packet rate average = 0.00975
	minimum = 0.00666667 (at node 11)
	maximum = 0.0153333 (at node 7)
Accepted packet rate average = 0.00979167
	minimum = 0.00666667 (at node 3)
	maximum = 0.016 (at node 13)
Injected flit rate average = 0.00975
	minimum = 0.00666667 (at node 11)
	maximum = 0.0153333 (at node 7)
Accepted flit rate average= 0.00979167
	minimum = 0.00666667 (at node 3)
	maximum = 0.016 (at node 13)
Injected packet length average = 1
Accepted packet length average = 1
Total in-flight flits = 1 (1 measured)
latency change    = 0.0042032
throughput change = 0.0276596
Class 0:
Packet latency average = 21.9404
	minimum = 7
	maximum = 65
Network latency average = 21.9404
	minimum = 7
	maximum = 65
Slowest packet = 6084
Flit latency average = 21.9408
	minimum = 7
	maximum = 65
Slowest flit = 6084
Fragmentation average = 0
	minimum = 0
	maximum = 0
Injected packet rate average = 0.00953125
	minimum = 0.006 (at node 12)
	maximum = 0.013 (at node 0)
Accepted packet rate average = 0.0095
	minimum = 0.006 (at node 3)
	maximum = 0.013 (at node 0)
Injected flit rate average = 0.00953125
	minimum = 0.006 (at node 12)
	maximum = 0.013 (at node 0)
Accepted flit rate average= 0.0095
	minimum = 0.006 (at node 3)
	maximum = 0.013 (at node 0)
Injected packet length average = 1
Accepted packet length average = 1
Total in-flight flits = 3 (3 measured)
latency change    = 0.00686851
throughput change = 0.0307018
Draining all recorded packets ...
Draining remaining packets ...
Time taken is 3581 cycles
Class 0:
Packet latency average = 23.9538
	minimum = 7
	maximum = 57
Network latency average = 23.9538
	minimum = 7
	maximum = 57
Slowest packet = 6220
Flit latency average = 23.9538
	minimum = 7
	maximum = 57
Slowest flit = 6220
Fragmentation average = 0
	minimum = 0
	maximum = 0
Injected packet rate average = 0.009125
	minimum = 0 (at node 15)
	maximum = 0.016 (at node 0)
Accepted packet rate average = 0.008125
	minimum = 0 (at node 15)
	maximum = 0.014 (at node 0)
Injected flit rate average = 0.009125
	minimum = 0 (at node 15)
	maximum = 0.016 (at node 0)
Accepted flit rate average= 0.008125
	minimum = 0 (at node 15)
	maximum = 0.014 (at node 0)
Injected packet length average = 1
Accepted packet length average = 1
Total in-flight flits = 8 (0 measured)
latency change    = 1
throughput change = 1
Class 0:
Packet latency average = 23.882
	minimum = 7
	maximum = 85
Network latency average = 23.882
	minimum = 7
	maximum = 85
Slowest packet = 6271
Flit latency average = 23.882
	minimum = 7
	maximum = 85
Slowest flit = 6271
Fragmentation average = 0
	minimum = 0
	maximum = 0
Injected packet rate average = 0.0103125
	minimum = 0.004 (at node 15)
	maximum = 0.017 (at node 0)
Accepted packet rate average = 0.0100625
	minimum = 0.004 (at node 15)
	maximum = 0.017 (at node 0)
Injected flit rate average = 0.0103125
	minimum = 0.004 (at node 15)
	maximum = 0.017 (at node 0)
Accepted flit rate average= 0.0100625
	minimum = 0.004 (at node 15)
	maximum = 0.017 (at node 0)
Injected packet length average = 1
Accepted packet length average = 1
Total in-flight flits = 4 (0 measured)
latency change    = 0.0030089
throughput change = 0.192547
Class 0:
Packet latency average = 23.2639
	minimum = 7
	maximum = 66
Network latency average = 23.2639
	minimum = 7
	maximum = 66
Slowest packet = 6380
Flit latency average = 23.2639
	minimum = 7
	maximum = 66
Slowest flit = 6380
Fragmentation average = 0
	minimum = 0
	maximum = 0
Injected packet rate average = 0.00875
	minimum = 0 (at node 13)
	maximum = 0.018 (at node 12)
Accepted packet rate average = 0.009
	minimum = 0 (at node 7)
	maximum = 0.016 (at node 3)
Injected flit rate average = 0.00875
	minimum = 0 (at node 13)
	maximum = 0.018 (at node 12)
Accepted flit rate average= 0.009
	minimum = 0 (at node 7)
	maximum = 0.016 (at node 3)
Injected packet length average = 1
Accepted packet length average = 1
Total in-flight flits = 2 (0 measured)
latency change    = 0.026569
throughput change = 0.118056
Warmed up ...Time used is 1500 cycles
Class 0:
Packet latency average = 24.9545
	minimum = 7
	maximum = 65
Network latency average = 24.9545
	minimum = 7
	maximum = 65
Slowest packet = 6489
Flit latency average = 25.8971
	minimum = 7
	maximum = 65
Slowest flit = 6489
Fragmentation average = 0
	minimum = 0
	maximum = 0
Injected packet rate average = 0.00875
	minimum = 0.002 (at node 2)
	maximum = 0.022 (at node 13)
Accepted packet rate average = 0.0085
	minimum = 0.002 (at node 8)
	maximum = 0.018 (at node 7)
Injected flit rate average = 0.00875
	minimum = 0.002 (at node 2)
	maximum = 0.022 (at node 13)
Accepted flit rate average= 0.0085
	minimum = 0.002 (at node 8)
	maximum = 0.018 (at node 7)
Injected packet length average = 1
Accepted packet length average = 1
Total in-flight flits = 4 (4 measured)
latency change    = 0.0677494
throughput change = 0.0588235
Class 0:
Packet latency average = 23.6233
	minimum = 7
	maximum = 65
Network latency average = 23.6233
	minimum = 7
	maximum = 65
Slowest packet = 6489
Flit latency average = 24.0743
	minimum = 7
	maximum = 65
Slowest flit = 6489
Fragmentation average = 0
	minimum = 0
	maximum = 0
Injected packet rate average = 0.00925
	minimum = 0.007 (at node 0)
	maximum = 0.012 (at node 3)
Accepted packet rate average = 0.00925
	minimum = 0.007 (at node 0)
	maximum = 0.012 (at node 2)
Injected flit rate average = 0.00925
	minimum = 0.007 (at node 0)
	maximum = 0.012 (at node 3)
Accepted flit rate average= 0.00925
	minimum = 0.007 (at node 0)
	maximum = 0.012 (at node 2)
Injected packet length average = 1
Accepted packet length average = 1
Total in-flight flits = 2 (2 measured)
latency change    = 0.0563536
throughput change = 0.0810811
Class 0:
Packet latency average = 22.7972
	minimum = 7
	maximum = 65
Network latency average = 22.7972
	minimum = 7
	maximum = 65
Slowest packet = 6489
Flit latency average = 23.1096
	minimum = 7
	maximum = 65
Slowest flit = 6489
Fragmentation average = 0
	minimum = 0
	maximum = 0
Injected packet rate average = 0.00929167
	minimum = 0.00666667 (at node 2)
	maximum = 0.0126667 (at node 8)
Accepted packet rate average = 0.009125
	minimum = 0.00666667 (at node 8)
	maximum = 0.0113333 (at node 1)
Injected flit rate average = 0.00929167
	minimum = 0.00666667 (at node 2)
	maximum = 0.0126667 (at node 8)
Accepted flit rate average= 0.009125
	minimum = 0.00666667 (at node 8)
	maximum = 0.0113333 (at node 1)
Injected packet length average = 1
Accepted packet length average = 1
Total in-flight flits = 6 (6 measured)
latency change    = 0.0362348
throughput change = 0.0136986
Class 0:
Packet latency average = 22.9901
	minimum = 7
	maximum = 65
Network latency average = 22.9901
	minimum = 7
	maximum = 65
Slowest packet = 6489
Flit latency average = 23.2124
	minimum = 7
	maximum = 65
Slowest flit = 6489
Fragmentation average = 0
	minimum = 0
	maximum = 0
Injected packet rate average = 0.0096875
	minimum = 0.007 (at node 6)
	maximum = 0.012 (at node 3)
Accepted packet rate average = 0.0095625
	minimum = 0.007 (at node 9)
	maximum = 0.0115 (at node 2)
Injected flit rate average = 0.0096875
	minimum = 0.007 (at node 6)
	maximum = 0.012 (at node 3)
Accepted flit rate average= 0.0095625
	minimum = 0.007 (at node 9)
	maximum = 0.0115 (at node 2)
Injected packet length average = 1
Accepted packet length average = 1
Total in-flight flits = 6 (6 measured)
latency change    = 0.00839041
throughput change = 0.0457516
Class 0:
Packet latency average = 22.7335
	minimum = 7
	maximum = 65
Network latency average = 22.7335
	minimum = 7
	maximum = 65
Slowest packet = 6489
Flit latency average = 22.9134
	minimum = 7
	maximum = 65
Slowest flit = 6489
Fragmentation average = 0
	minimum = 0
	maximum = 0
Injected packet rate average = 0.009575
	minimum = 0.0072 (at node 12)
	maximum = 0.012 (at node 8)
Accepted packet rate average = 0.009525
	minimum = 0.0076 (at node 3)
	maximum = 0.012 (at node 2)
Injected flit rate average = 0.009575
	minimum = 0.0072 (at node 12)
	maximum = 0.012 (at node 8)
Accepted flit rate average= 0.009525
	minimum = 0.0076 (at node 3)
	maximum = 0.012 (at node 2)
Injected packet length average = 1
Accepted packet length average = 1
Total in-flight flits = 4 (4 measured)
latency change    = 0.0112883
throughput change = 0.00393701
Draining all recorded packets ...
Draining remaining packets ...
Time taken is 4078 cycles
Class 0:
Packet latency average = 20.4638
	minimum = 7
	maximum = 57
Network latency average = 20.4638
	minimum = 7
	maximum = 57
Slowest packet = 6877
Flit latency average = 20.4638
	minimum = 7
	maximum = 57
Slowest flit = 6877
Fragmentation average = 0
	minimum = 0
	maximum = 0
Injected packet rate average = 0.009375
	minimum = 0.002 (at node 15)
	maximum = 0.02 (at node 5)
Accepted packet rate average = 0.008625
	minimum = 0.002 (at node 13)
	maximum = 0.02 (at node 5)
Injected flit rate average = 0.009375
	minimum = 0.002 (at node 15)
	maximum = 0.02 (at node 5)
Accepted flit rate average= 0.008625
	minimum = 0.002 (at node 13)
	maximum = 0.02 (at node 5)
Injected packet length average = 1
Accepted packet length average = 1
Total in-flight flits = 6 (0 measured)
latency change    = 1
throughput change = 1
Class 0:
Packet latency average = 22.2013
	minimum = 7
	maximum = 65
Network latency average = 22.2013
	minimum = 7
	maximum = 65
Slowest packet = 6916
Flit latency average = 22.2013
	minimum = 7
	maximum = 65
Slowest flit = 6916
Fragmentation average = 0
	minimum = 0
	maximum = 0
Injected packet rate average = 0.0101875
	minimum = 0.005 (at node 9)
	maximum = 0.017 (at node 4)
Accepted packet rate average = 0.0099375
	minimum = 0.005 (at node 6)
	maximum = 0.017 (at node 1)
Injected flit rate average = 0.0101875
	minimum = 0.005 (at node 9)
	maximum = 0.017 (at node 4)
Accepted flit rate average= 0.0099375
	minimum = 0.005 (at node 6)
	maximum = 0.017 (at node 1)
Injected packet length average = 1
Accepted packet length average = 1
Total in-flight flits = 4 (0 measured)
latency change    = 0.0782609
throughput change = 0.132075
Class 0:
Packet latency average = 24.8049
	minimum = 7
	maximum = 60
Network latency average = 24.8049
	minimum = 7
	maximum = 60
Slowest packet = 7049
Flit latency average = 24.8049
	minimum = 7
	maximum = 60
Slowest flit = 7049
Fragmentation average = 0
	minimum = 0
	maximum = 0
Injected packet rate average = 0.01025
	minimum = 0.004 (at node 13)
	maximum = 0.016 (at node 12)
Accepted packet rate average = 0.01025
	minimum = 0.006 (at node 6)
	maximum = 0.014 (at node 3)
Injected flit rate average = 0.01025
	minimum = 0.004 (at node 13)
	maximum = 0.016 (at node 12)
Accepted flit rate average= 0.01025
	minimum = 0.006 (at node 6)
	maximum = 0.014 (at node 3)
Injected packet length average = 1
Accepted packet length average = 1
Total in-flight flits = 4 (0 measured)
latency change    = 0.104964
throughput change = 0.0304878
Warmed up ...Time used is 1500 cycles
Class 0:
Packet latency average = 23.4091
	minimum = 7
	maximum = 63
Network latency average = 23.4091
	minimum = 7
	maximum = 63
Slowest packet = 7107
Flit latency average = 24.0429
	minimum = 7
	maximum = 63
Slowest flit = 7107
Fragmentation average = 0
	minimum = 0
	maximum = 0
Injected packet rate average = 0.008375
	minimum = 0.004 (at node 11)
	maximum = 0.016 (at node 8)
Accepted packet rate average = 0.00875
	minimum = 0.004 (at node 8)
	maximum = 0.018 (at node 2)
Injected flit rate average = 0.008375
	minimum = 0.004 (at node 11)
	maximum = 0.016 (at node 8)
Accepted flit rate average= 0.00875
	minimum = 0.004 (at node 8)
	maximum = 0.018 (at node 2)
Injected packet length average = 1
Accepted packet length average = 1
Total in-flight flits = 1 (1 measured)
latency change    = 0.0596259
throughput change = 0.171429
Class 0:
Packet latency average = 22.6797
	minimum = 7
	maximum = 63
Network latency average = 22.6797
	minimum = 7
	maximum = 63
Slowest packet = 7107
Flit latency average = 22.9809
	minimum = 7
	maximum = 63
Slowest flit = 7107
Fragmentation average = 0
	minimum = 0
	maximum = 0
Injected packet rate average = 0.0099375
	minimum = 0.005 (at node 6)
	maximum = 0.015 (at node 13)
Accepted packet rate average = 0.0098125
	minimum = 0.005 (at node 3)
	maximum = 0.015 (at node 15)
Injected flit rate average = 0.0099375
	minimum = 0.005 (at node 6)
	maximum = 0.015 (at node 13)
Accepted flit rate average= 0.0098125
	minimum = 0.005 (at node 3)
	maximum = 0.015 (at node 15)
Injected packet length average = 1
Accepted packet length average = 1
Total in-flight flits = 6 (6 measured)
latency change    = 0.0321588
throughput change = 0.10828
Class 0:
Packet latency average = 23.094
	minimum = 7
	maximum = 63
Network latency average = 23.094
	minimum = 7
	maximum = 63
Slowest packet = 7107
Flit latency average = 23.2857
	minimum = 7
	maximum = 63
Slowest flit = 7107
Fragmentation average = 0
	minimum = 0
	maximum = 0
Injected packet rate average = 0.009875
	minimum = 0.006 (at node 6)
	maximum = 0.0153333 (at node 1)
Accepted packet rate average = 0.00991667
	minimum = 0.006 (at node 3)
	maximum = 0.0153333 (at node 4)
Injected flit rate average = 0.009875
	minimum = 0.006 (at node 6)
	maximum = 0.0153333 (at node 1)
Accepted flit rate average= 0.00991667
	minimum = 0.006 (at node 3)
	maximum = 0.0153333 (at node 4)
Injected packet length average = 1
Accepted packet length average = 1
Total in-flight flits = 3 (3 measured)
latency change    = 0.0179388
throughput change = 0.0105042
Class 0:
Packet latency average = 23.3891
	minimum = 7
	maximum = 63
Network latency average = 23.3891
	minimum = 7
	maximum = 63
Slowest packet = 7107
Flit latency average = 23.5302
	minimum = 7
	maximum = 63
Slowest flit = 7107
Fragmentation average = 0
	minimum = 0
	maximum = 0
Injected packet rate average = 0.00978125
	minimum = 0.0075 (at node 6)
	maximum = 0.0145 (at node 1)
Accepted packet rate average = 0.00984375
	minimum = 0.0075 (at node 9)
	maximum = 0.0135 (at node 4)
Injected flit rate average = 0.00978125
	minimum = 0.0075 (at node 6)
	maximum = 0.0145 (at node 1)
Accepted flit rate average= 0.00984375
	minimum = 0.0075 (at node 9)
	maximum = 0.0135 (at node 4)
Injected packet length average = 1
Accepted packet length average = 1
Total in-flight flits = 2 (2 measured)
latency change    = 0.0126149
throughput change = 0.00740741
Class 0:
Packet latency average = 23.6035
	minimum = 7
	maximum = 63
Network latency average = 23.6035
	minimum = 7
	maximum = 63
Slowest packet = 7107
Flit latency average = 23.7111
	minimum = 7
	maximum = 63
Slowest flit = 7107
Fragmentation average = 0
	minimum = 0
	maximum = 0
Injected packet rate average = 0.010075
	minimum = 0.008 (at node 2)
	maximum = 0.0136 (at node 1)
Accepted packet rate average = 0.010125
	minimum = 0.0076 (at node 10)
	maximum = 0.0136 (at node 4)
[...]
Network latency average = 24.9231
	minimum = 7
	maximum = 74
Slowest packet = 32061
Flit latency average = 25.019
	minimum = 7
	maximum = 74
Slowest flit = 32061
Fragmentation average = 0
	minimum = 0
	maximum = 0
Injected packet rate average = 0.0100625
	minimum = 0.003 (at node 5)
	maximum = 0.015 (at node 3)
Accepted packet rate average = 0.009875
	minimum = 0.003 (at node 5)
	maximum = 0.015 (at node 1)
Injected flit rate average = 0.0100625
	minimum = 0.003 (at node 5)
	maximum = 0.015 (at node 3)
Accepted flit rate average= 0.009875
	minimum = 0.003 (at node 5)
	maximum = 0.015 (at node 1)
Injected packet length average = 1
Accepted packet length average = 1
Total in-flight flits = 5 (5 measured)
latency change    = 0.0203618
throughput change = 0.0632911
Class 0:
Packet latency average = 24.1893
	minimum = 7
	maximum = 74
Network latency average = 24.1893
	minimum = 7
	maximum = 74
Slowest packet = 32061
Flit latency average = 24.2571
	minimum = 7
	maximum = 74
Slowest flit = 32061
Fragmentation average = 0
	minimum = 0
	maximum = 0
Injected packet rate average = 0.0102083
	minimum = 0.00466667 (at node 5)
	maximum = 0.0133333 (at node 6)
Accepted packet rate average = 0.0102083
	minimum = 0.00466667 (at node 5)
	maximum = 0.0133333 (at node 9)
Injected flit rate average = 0.0102083
	minimum = 0.00466667 (at node 5)
	maximum = 0.0133333 (at node 6)
Accepted flit rate average= 0.0102083
	minimum = 0.00466667 (at node 5)
	maximum = 0.0133333 (at node 9)
Injected packet length average = 1
Accepted packet length average = 1
Total in-flight flits = 2 (2 measured)
latency change    = 0.0303348
throughput change = 0.0326531
Class 0:
Packet latency average = 24.0156
	minimum = 7
	maximum = 74
Network latency average = 24.0156
	minimum = 7
	maximum = 74
Slowest packet = 32061
Flit latency average = 24.0683
	minimum = 7
	maximum = 74
Slowest flit = 32061
Fragmentation average = 0
	minimum = 0
	maximum = 0
Injected packet rate average = 0.0100625
	minimum = 0.0075 (at node 5)
	maximum = 0.0125 (at node 3)
Accepted packet rate average = 0.0100625
	minimum = 0.0075 (at node 5)
	maximum = 0.0125 (at node 12)
Injected flit rate average = 0.0100625
	minimum = 0.0075 (at node 5)
	maximum = 0.0125 (at node 3)
Accepted flit rate average= 0.0100625
	minimum = 0.0075 (at node 5)
	maximum = 0.0125 (at node 12)
Injected packet length average = 1
Accepted packet length average = 1
Total in-flight flits = 2 (2 measured)
latency change    = 0.00723177
throughput change = 0.0144928
Class 0:
Packet latency average = 24.0852
	minimum = 7
	maximum = 74
Network latency average = 24.0852
	minimum = 7
	maximum = 74
Slowest packet = 32061
Flit latency average = 24.1272
	minimum = 7
	maximum = 74
Slowest flit = 32061
Fragmentation average = 0
	minimum = 0
	maximum = 0
Injected packet rate average = 0.01005
	minimum = 0.0076 (at node 5)
	maximum = 0.0124 (at node 6)
Accepted packet rate average = 0.010025
	minimum = 0.0076 (at node 5)
	maximum = 0.0124 (at node 14)
Injected flit rate average = 0.01005
	minimum = 0.0076 (at node 5)
	maximum = 0.0124 (at node 6)
Accepted flit rate average= 0.010025
	minimum = 0.0076 (at node 5)
	maximum = 0.0124 (at node 14)
Injected packet length average = 1
Accepted packet length average = 1
Total in-flight flits = 3 (3 measured)
latency change    = 0.00288924
throughput change = 0.00374065
Draining all recorded packets ...
Draining remaining packets ...
Time taken is 4083 cycles
Class 0:
Packet latency average = 24.1098
	minimum = 7
	maximum = 57
Network latency average = 24.1098
	minimum = 7
	maximum = 57
Slowest packet = 32393
Flit latency average = 24.1098
	minimum = 7
	maximum = 57
Slowest flit = 32393
Fragmentation average = 0
	minimum = 0
	maximum = 0
Injected packet rate average = 0.010375
	minimum = 0.004 (at node 8)
	maximum = 0.016 (at node 9)
Accepted packet rate average = 0.01025
	minimum = 0.004 (at node 2)
	maximum = 0.016 (at node 6)
Injected flit rate average = 0.010375
	minimum = 0.004 (at node 8)
	maximum = 0.016 (at node 9)
Accepted flit rate average= 0.01025
	minimum = 0.004 (at node 2)
	maximum = 0.016 (at node 6)
Injected packet length average = 1
Accepted packet length average = 1
Total in-flight flits = 1 (0 measured)
latency change    = 1
throughput change = 1
Class 0:
Packet latency average = 24.6144
	minimum = 7
	maximum = 67
Network latency average = 24.6144
	minimum = 7
	maximum = 67
Slowest packet = 32495
Flit latency average = 24.6144
	minimum = 7
	maximum = 67
Slowest flit = 32495
Fragmentation average = 0
	minimum = 0
	maximum = 0
Injected packet rate average = 0.0100625
	minimum = 0.006 (at node 6)
	maximum = 0.015 (at node 1)
Accepted packet rate average = 0.0095625
	minimum = 0.005 (at node 9)
	maximum = 0.015 (at node 4)
Injected flit rate average = 0.0100625
	minimum = 0.006 (at node 6)
	maximum = 0.015 (at node 1)
Accepted flit rate average= 0.0095625
	minimum = 0.005 (at node 9)
	maximum = 0.015 (at node 4)
Injected packet length average = 1
Accepted packet length average = 1
Total in-flight flits = 8 (0 measured)
latency change    = 0.0205011
throughput change = 0.0718954
Class 0:
Packet latency average = 23.3958
	minimum = 7
	maximum = 66
Network latency average = 23.3958
	minimum = 7
	maximum = 66
Slowest packet = 32539
Flit latency average = 23.3958
	minimum = 7
	maximum = 66
Slowest flit = 32539
Fragmentation average = 0
	minimum = 0
	maximum = 0
Injected packet rate average = 0.011375
	minimum = 0.004 (at node 15)
	maximum = 0.018 (at node 0)
Accepted packet rate average = 0.012
	minimum = 0.004 (at node 15)
	maximum = 0.018 (at node 0)
Injected flit rate average = 0.011375
	minimum = 0.004 (at node 15)
	maximum = 0.018 (at node 0)
Accepted flit rate average= 0.012
	minimum = 0.004 (at node 15)
	maximum = 0.018 (at node 0)
Injected packet length average = 1
Accepted packet length average = 1
Total in-flight flits = 3 (0 measured)
latency change    = 0.0520839
throughput change = 0.203125
Warmed up ...Time used is 1500 cycles
Class 0:
Packet latency average = 23.1618
	minimum = 7
	maximum = 58
Network latency average = 23.1618
	minimum = 7
	maximum = 58
Slowest packet = 32681
Flit latency average = 24
	minimum = 7
	maximum = 58
Slowest flit = 32681
Fragmentation average = 0
	minimum = 0
	maximum = 0
Injected packet rate average = 0.009
	minimum = 0.004 (at node 2)
	maximum = 0.018 (at node 8)
Accepted packet rate average = 0.008875
	minimum = 0.004 (at node 6)
	maximum = 0.018 (at node 2)
Injected flit rate average = 0.009
	minimum = 0.004 (at node 2)
	maximum = 0.018 (at node 8)
Accepted flit rate average= 0.008875
	minimum = 0.004 (at node 6)
	maximum = 0.018 (at node 2)
Injected packet length average = 1
Accepted packet length average = 1
Total in-flight flits = 4 (4 measured)
latency change    = 0.0101058
throughput change = 0.352113
Class 0:
Packet latency average = 23.2819
	minimum = 7
	maximum = 61
Network latency average = 23.2819
	minimum = 7
	maximum = 61
Slowest packet = 32779
Flit latency average = 23.6711
	minimum = 7
	maximum = 61
Slowest flit = 32779
Fragmentation average = 0
	minimum = 0
	maximum = 0
Injected packet rate average = 0.0095625
	minimum = 0.007 (at node 2)
	maximum = 0.014 (at node 8)
Accepted packet rate average = 0.0095
	minimum = 0.007 (at node 6)
	maximum = 0.013 (at node 1)
Injected flit rate average = 0.0095625
	minimum = 0.007 (at node 2)
	maximum = 0.014 (at node 8)
Accepted flit rate average= 0.0095
	minimum = 0.007 (at node 6)
	maximum = 0.013 (at node 1)
Injected packet length average = 1
Accepted packet length average = 1
Total in-flight flits = 4 (4 measured)
latency change    = 0.00515914
throughput change = 0.0657895
Class 0:
Packet latency average = 23.5289
	minimum = 7
	maximum = 61
Network latency average = 23.5289
	minimum = 7
	maximum = 61
Slowest packet = 32779
Flit latency average = 23.7673
	minimum = 7
	maximum = 61
Slowest flit = 32779
Fragmentation average = 0
	minimum = 0
	maximum = 0
Injected packet rate average = 0.0101667
	minimum = 0.006 (at node 9)
	maximum = 0.0133333 (at node 4)
Accepted packet rate average = 0.0102083
	minimum = 0.006 (at node 6)
	maximum = 0.014 (at node 7)
Injected flit rate average = 0.0101667
	minimum = 0.006 (at node 9)
	maximum = 0.0133333 (at node 4)
Accepted flit rate average= 0.0102083
	minimum = 0.006 (at node 6)
	maximum = 0.014 (at node 7)
Injected packet length average = 1
Accepted packet length average = 1
Total in-flight flits = 2 (2 measured)
latency change    = 0.0104997
throughput change = 0.0693878
Class 0:
Packet latency average = 23.3048
	minimum = 7
	maximum = 65
Network latency average = 23.3048
	minimum = 7
	maximum = 65
Slowest packet = 32945
Flit latency average = 23.4906
	minimum = 7
	maximum = 65
Slowest flit = 32945
Fragmentation average = 0
	minimum = 0
	maximum = 0
Injected packet rate average = 0.0099375
	minimum = 0.0055 (at node 9)
	maximum = 0.0135 (at node 4)
Accepted packet rate average = 0.0099375
	minimum = 0.0055 (at node 6)
	maximum = 0.0135 (at node 1)
Injected flit rate average = 0.0099375
	minimum = 0.0055 (at node 9)
	maximum = 0.0135 (at node 4)
Accepted flit rate average= 0.0099375
	minimum = 0.0055 (at node 6)
	maximum = 0.0135 (at node 1)
Injected packet length average = 1
Accepted packet length average = 1
Total in-flight flits = 3 (3 measured)
latency change    = 0.00961879
throughput change = 0.0272537
Class 0:
Packet latency average = 22.9465
	minimum = 7
	maximum = 65
Network latency average = 22.9465
	minimum = 7
	maximum = 65
Slowest packet = 32945
Flit latency average = 23.0918
	minimum = 7
	maximum = 65
Slowest flit = 32945
Fragmentation average = 0
	minimum = 0
	maximum = 0
Injected packet rate average = 0.010425
	minimum = 0.0064 (at node 9)
	maximum = 0.0132 (at node 11)
Accepted packet rate average = 0.01035
	minimum = 0.0064 (at node 6)
	maximum = 0.0132 (at node 11)
Injected flit rate average = 0.010425
	minimum = 0.0064 (at node 9)
	maximum = 0.0132 (at node 11)
Accepted flit rate average= 0.01035
	minimum = 0.0064 (at node 6)
	maximum = 0.0132 (at node 11)
Injected packet length average = 1
Accepted packet length average = 1
Total in-flight flits = 6 (6 measured)
latency change    = 0.0156142
throughput change = 0.0398551
Class 0:
Packet latency average = 22.6454
	minimum = 7
	maximum = 65
Network latency average = 22.6454
	minimum = 7
	maximum = 65
Slowest packet = 32945
Flit latency average = 22.7705
	minimum = 7
	maximum = 65
Slowest flit = 32945
Fragmentation average = 0
	minimum = 0
	maximum = 0
Injected packet rate average = 0.0101667
	minimum = 0.007 (at node 9)
	maximum = 0.013 (at node 15)
Accepted packet rate average = 0.0101667
	minimum = 0.007 (at node 6)
	maximum = 0.013 (at node 15)
Injected flit rate average = 0.0101667
	minimum = 0.007 (at node 9)
	maximum = 0.013 (at node 15)
Accepted flit rate average= 0.0101667
	minimum = 0.007 (at node 6)
	maximum = 0.013 (at node 15)
Injected packet length average = 1
Accepted packet length average = 1
Total in-flight flits = 3 (3 measured)
latency change    = 0.0132968
throughput change = 0.0180328
Draining all recorded packets ...
Draining remaining packets ...
Time taken is 4612 cycles
Class 0:
Packet latency average = 22.8611
	minimum = 7
	maximum = 65
Network latency average = 22.8611
	minimum = 7
	maximum = 65
Slowest packet = 33184
Flit latency average = 22.8611
	minimum = 7
	maximum = 65
Slowest flit = 33184
Fragmentation average = 0
	minimum = 0
	maximum = 0
Injected packet rate average = 0.0095
	minimum = 0.004 (at node 3)
	maximum = 0.016 (at node 9)
Accepted packet rate average = 0.009
	minimum = 0.002 (at node 12)
	maximum = 0.016 (at node 6)
Injected flit rate average = 0.0095
	minimum = 0.004 (at node 3)
	maximum = 0.016 (at node 9)
Accepted flit rate average= 0.009
	minimum = 0.002 (at node 12)
	maximum = 0.016 (at node 6)
Injected packet length average = 1
Accepted packet length average = 1
Total in-flight flits = 4 (0 measured)
latency change    = 1
throughput change = 1
Class 0:
Packet latency average = 21.5629
	minimum = 7
	maximum = 65
Network latency average = 21.5629
	minimum = 7
	maximum = 65
Slowest packet = 33184
Flit latency average = 21.5629
	minimum = 7
	maximum = 65
Slowest flit = 33184
Fragmentation average = 0
	minimum = 0
	maximum = 0
Injected packet rate average = 0.0096875
	minimum = 0.005 (at node 3)
	maximum = 0.019 (at node 6)
Accepted packet rate average = 0.0094375
	minimum = 0.005 (at node 12)
	maximum = 0.018 (at node 9)
Injected flit rate average = 0.0096875
	minimum = 0.005 (at node 3)
	maximum = 0.019 (at node 6)
Accepted flit rate average= 0.0094375
	minimum = 0.005 (at node 12)
	maximum = 0.018 (at node 9)
Injected packet length average = 1
Accepted packet length average = 1
Total in-flight flits = 4 (0 measured)
latency change    = 0.0602051
throughput change = 0.0463576
Class 0:
Packet latency average = 25.1282
	minimum = 7
	maximum = 60
Network latency average = 25.1282
	minimum = 7
	maximum = 60
Slowest packet = 33351
Flit latency average = 25.1282
	minimum = 7
	maximum = 60
Slowest flit = 33351
Fragmentation average = 0
	minimum = 0
	maximum = 0
Injected packet rate average = 0.00975
	minimum = 0.004 (at node 1)
	maximum = 0.014 (at node 2)
Accepted packet rate average = 0.00975
	minimum = 0.004 (at node 2)
	maximum = 0.016 (at node 7)
Injected flit rate average = 0.00975
	minimum = 0.004 (at node 1)
	maximum = 0.014 (at node 2)
Accepted flit rate average= 0.00975
	minimum = 0.004 (at node 2)
	maximum = 0.016 (at node 7)
Injected packet length average = 1
Accepted packet length average = 1
Total in-flight flits = 4 (0 measured)
latency change    = 0.141884
throughput change = 0.0320513
Warmed up ...Time used is 1500 cycles
Class 0:
Packet latency average = 24.0825
	minimum = 7
	maximum = 69
Network latency average = 24.0825
	minimum = 7
	maximum = 69
Slowest packet = 33403
Flit latency average = 24.297
	minimum = 7
	maximum = 69
Slowest flit = 33403
Fragmentation average = 0
	minimum = 0
	maximum = 0
Injected packet rate average = 0.012875
	minimum = 0.006 (at node 15)
	maximum = 0.02 (at node 1)
Accepted packet rate average = 0.012625
	minimum = 0.004 (at node 3)
	maximum = 0.022 (at node 13)
Injected flit rate average = 0.012875
	minimum = 0.006 (at node 15)
	maximum = 0.02 (at node 1)
Accepted flit rate average= 0.012625
	minimum = 0.004 (at node 3)
	maximum = 0.022 (at node 13)
Injected packet length average = 1
Accepted packet length average = 1
Total in-flight flits = 6 (6 measured)
latency change    = 0.0434229
throughput change = 0.227723
Class 0:
Packet latency average = 24.2951
	minimum = 7
	maximum = 77
Network latency average = 24.2951
	minimum = 7
	maximum = 77
Slowest packet = 33470
Flit latency average = 24.4064
	minimum = 7
	maximum = 77
Slowest flit = 33470
Fragmentation average = 0
	minimum = 0
	maximum = 0
Injected packet rate average = 0.011625
	minimum = 0.006 (at node 5)
	maximum = 0.017 (at node 14)
Accepted packet rate average = 0.0116875
	minimum = 0.006 (at node 5)
	maximum = 0.016 (at node 11)
Injected flit rate average = 0.011625
	minimum = 0.006 (at node 5)
	maximum = 0.017 (at node 14)
Accepted flit rate average= 0.0116875
	minimum = 0.006 (at node 5)
	maximum = 0.016 (at node 11)
Injected packet length average = 1
Accepted packet length average = 1
Total in-flight flits = 3 (3 measured)
latency change    = 0.00875106
throughput change = 0.0802139
Class 0:
Packet latency average = 24.626
	minimum = 7
	maximum = 77
Network latency average = 24.626
	minimum = 7
	maximum = 77
Slowest packet = 33470
Flit latency average = 24.7016
	minimum = 7
	maximum = 77
Slowest flit = 33470
Fragmentation average = 0
	minimum = 0
	maximum = 0
Injected packet rate average = 0.0106667
	minimum = 0.00666667 (at node 6)
	maximum = 0.014 (at node 3)
Accepted packet rate average = 0.01075
	minimum = 0.00733333 (at node 9)
	maximum = 0.014 (at node 11)
Injected flit rate average = 0.0106667
	minimum = 0.00666667 (at node 6)
	maximum = 0.014 (at node 3)
Accepted flit rate average= 0.01075
	minimum = 0.00733333 (at node 9)
	maximum = 0.014 (at node 11)
Injected packet length average = 1
Accepted packet length average = 1
Total in-flight flits = 2 (2 measured)
latency change    = 0.0134371
throughput change = 0.0872093
Class 0:
Packet latency average = 24.2126
	minimum = 7
	maximum = 77
Network latency average = 24.2126
	minimum = 7
	maximum = 77
Slowest packet = 33470
Flit latency average = 24.2751
	minimum = 7
	maximum = 77
Slowest flit = 33470
Fragmentation average = 0
	minimum = 0
	maximum = 0
Injected packet rate average = 0.0105625
	minimum = 0.007 (at node 6)
	maximum = 0.0145 (at node 3)
Accepted packet rate average = 0.0105625
	minimum = 0.007 (at node 8)
	maximum = 0.0135 (at node 11)
Injected flit rate average = 0.0105625
	minimum = 0.007 (at node 6)
	maximum = 0.0145 (at node 3)
Accepted flit rate average= 0.0105625
	minimum = 0.007 (at node 8)
	maximum = 0.0135 (at node 11)
Injected packet length average = 1
Accepted packet length average = 1
Total in-flight flits = 4 (4 measured)
latency change    = 0.0170742
throughput change = 0.0177515
Class 0:
Packet latency average = 24.3293
	minimum = 7
	maximum = 77
Network latency average = 24.3293
	minimum = 7
	maximum = 77
Slowest packet = 33470
Flit latency average = 24.3789
	minimum = 7
	maximum = 77
Slowest flit = 33470
Fragmentation average = 0
	minimum = 0
	maximum = 0
Injected packet rate average = 0.010475
	minimum = 0.0076 (at node 2)
	maximum = 0.0148 (at node 3)
Accepted packet rate average = 0.010425
	minimum = 0.0076 (at node 8)
	maximum = 0.0144 (at node 12)
Injected flit rate average = 0.010475
	minimum = 0.0076 (at node 2)
	maximum = 0.0148 (at node 3)
Accepted flit rate average= 0.010425
	minimum = 0.0076 (at node 8)
	maximum = 0.0144 (at node 12)
Injected packet length average = 1
Accepted packet length average = 1
Total in-flight flits = 6 (6 measured)
latency change    = 0.00479763
throughput change = 0.0131894
Class 0:
Packet latency average = 24.4078
	minimum = 7
	maximum = 77
Network latency average = 24.4078
	minimum = 7
	maximum = 77
Slowest packet = 33470
Flit latency average = 24.4475
	minimum = 7
	maximum = 77
Slowest flit = 33470
Fragmentation average = 0
	minimum = 0
	maximum = 0
Injected packet rate average = 0.0107083
	minimum = 0.008 (at node 2)
	maximum = 0.014 (at node 3)
Accepted packet rate average = 0.0107083
	minimum = 0.00766667 (at node 8)
	maximum = 0.0136667 (at node 12)
Injected flit rate average = 0.0107083
	minimum = 0.008 (at node 2)
	maximum = 0.014 (at node 3)
Accepted flit rate average= 0.0107083
	minimum = 0.00766667 (at node 8)
	maximum = 0.0136667 (at node 12)
Injected packet length average = 1
Accepted packet length average = 1
Total in-flight flits = 4 (4 measured)
latency change    = 0.00321804
throughput change = 0.0264591
Draining all recorded packets ...
Draining remaining packets ...
Time taken is 4580 cycles
====== Overall Traffic Statistics ======
====== Traffic class 0 ======
Packet latency average = 23.7671 (50 samples)
	minimum = 7 (50 samples)
	maximum = 69.42 (50 samples)
Network latency average = 23.7671 (50 samples)
	minimum = 7 (50 samples)
	maximum = 69.42 (50 samples)
Flit latency average = 23.8473 (50 samples)
	minimum = 7 (50 samples)
	maximum = 70.12 (50 samples)
Fragmentation average = 0 (50 samples)
	minimum = 0 (50 samples)
	maximum = 0 (50 samples)
Injected packet rate average = 0.0100021 (50 samples)
	minimum = 0.00676057 (50 samples)
	maximum = 0.0134261 (50 samples)
Accepted packet rate average = 0.00999874 (50 samples)
	minimum = 0.00675257 (50 samples)
	maximum = 0.0133918 (50 samples)
Injected flit rate average = 0.0100021 (50 samples)
	minimum = 0.00676057 (50 samples)
	maximum = 0.0134261 (50 samples)
Accepted flit rate average = 0.00999874 (50 samples)
	minimum = 0.00675257 (50 samples)
	maximum = 0.0133918 (50 samples)
Injected packet size average = 1 (50 samples)
Accepted packet size average = 1 (50 samples)
Hops average = 4.25329 (50 samples)
Total run time 1.21903
