BEGIN Configuration File: /tmp/tmp8yc2eg84.cfg
topology = mesh;
k = 4;
n = 2;
routing_function = dor;
num_vcs = 4;
vc_buf_size = 4;
wait_for_tail_credit = 1;
vc_allocator = islip;
sw_allocator = islip;
alloc_iters = 1;
credit_delay = 2;
routing_delay = 1;
vc_alloc_delay = 1;
sw_alloc_delay = 1;
input_speedup = 2;
output_speedup = 1;
internal_speedup = 1.0;
traffic = hotspot;
packet_size = 1;
sim_type = latency;
injection_rate = 0.01;
warmup_periods = 3;
sample_period = 500;
sim_count = 50;
seed = 0;
link_failures = 2;
fail_seed = 303;

END Configuration File: /tmp/tmp8yc2eg84.cfg
failure at node 9, channel 2 (1/2)
failure at node 15, channel 3 (2/2)
Class 0:
Packet latency average = 20.0988
	minimum = 7
	maximum = 32
Network latency average = 20.0988
	minimum = 7
	maximum = 32
Slowest packet = 11
Flit latency average = 20.0988
	minimum = 7
	maximum = 32
Slowest flit = 11
Fragmentation average = 0
	minimum = 0
	maximum = 0
Injected packet rate average = 0.010375
	minimum = 0.004 (at node 5)
	maximum = 0.016 (at node 9)
Accepted packet rate average = 0.010125
	minimum = 0 (at node 0)
	maximum = 0.162 (at node 2)
Injected flit rate average = 0.010375
	minimum = 0.004 (at node 5)
	maximum = 0.016 (at node 9)
Accepted flit rate average= 0.010125
	minimum = 0 (at node 0)
	maximum = 0.162 (at node 2)
Injected packet length average = 1
Accepted packet length average = 1
Total in-flight flits = 2 (0 measured)
latency change    = 1
throughput change = 1
Class 0:
Packet latency average = 20.3182
	minimum = 7
	maximum = 32
Network latency average = 20.3182
	minimum = 7
	maximum = 32
Slowest packet = 11
Flit latency average = 20.3182
	minimum = 7
	maximum = 32
Slowest flit = 11
Fragmentation average = 0
	minimum = 0
	maximum = 0
Injected packet rate average = 0.00975
	minimum = 0.004 (at node 11)
	maximum = 0.014 (at node 13)
Accepted packet rate average = 0.009625
	minimum = 0 (at node 0)
	maximum = 0.154 (at node 2)
Injected flit rate average = 0.00975
	minimum = 0.004 (at node 11)
	maximum = 0.014 (at node 13)
Accepted flit rate average= 0.009625
	minimum = 0 (at node 0)
	maximum = 0.154 (at node 2)
Injected packet length average = 1
Accepted packet length average = 1
Total in-flight flits = 2 (0 measured)
latency change    = 0.010799
throughput change = 0.0519481
Class 0:
Packet latency average = 17.7534
	minimum = 7
	maximum = 32
Network latency average = 17.7534
	minimum = 7
	maximum = 32
Slowest packet = 163
Flit latency average = 17.7534
	minimum = 7
	maximum = 32
Slowest flit = 163
Fragmentation average = 0
	minimum = 0
	maximum = 0
Injected packet rate average = 0.00925
	minimum = 0.002 (at node 11)
	maximum = 0.016 (at node 10)
Accepted packet rate average = 0.009125
	minimum = 0 (at node 0)
	maximum = 0.146 (at node 2)
Injected flit rate average = 0.00925
	minimum = 0.002 (at node 11)
	maximum = 0.016 (at node 10)
Accepted flit rate average= 0.009125
	minimum = 0 (at node 0)
	maximum = 0.146 (at node 2)
Injected packet length average = 1
Accepted packet length average = 1
Total in-flight flits = 3 (0 measured)
latency change    = 0.144465
throughput change = 0.0547945
Warmed up ...Time used is 1500 cycles
Class 0:
Packet latency average = 20.52
	minimum = 7
	maximum = 32
Network latency average = 20.52
	minimum = 7
	maximum = 32
Slowest packet = 235
Flit latency average = 20.5256
	minimum = 7
	maximum = 32
Slowest flit = 228
Fragmentation average = 0
	minimum = 0
	maximum = 0
Injected packet rate average = 0.00975
	minimum = 0.004 (at node 3)
	maximum = 0.018 (at node 8)
Accepted packet rate average = 0.00975
	minimum = 0 (at node 0)
	maximum = 0.156 (at node 2)
Injected flit rate average = 0.00975
	minimum = 0.004 (at node 3)
	maximum = 0.018 (at node 8)
Accepted flit rate average= 0.00975
	minimum = 0 (at node 0)
	maximum = 0.156 (at node 2)
Injected packet length average = 1
Accepted packet length average = 1
Total in-flight flits = 3 (3 measured)
latency change    = 0.134823
throughput change = 0.0641026
Class 0:
Packet latency average = 20.3203
	minimum = 7
	maximum = 33
Network latency average = 20.3203
	minimum = 7
	maximum = 33
Slowest packet = 359
Flit latency average = 20.3269
	minimum = 7
	maximum = 33
Slowest flit = 359
Fragmentation average = 0
	minimum = 0
	maximum = 0
Injected packet rate average = 0.0096875
	minimum = 0.005 (at node 7)
	maximum = 0.016 (at node 13)
Accepted packet rate average = 0.00975
	minimum = 0 (at node 0)
	maximum = 0.156 (at node 2)
Injected flit rate average = 0.0096875
	minimum = 0.005 (at node 7)
	maximum = 0.016 (at node 13)
Accepted flit rate average= 0.00975
	minimum = 0 (at node 0)
	maximum = 0.156 (at node 2)
Injected packet length average = 1
Accepted packet length average = 1
Total in-flight flits = 2 (2 measured)
latency change    = 0.00982953
throughput change = 0
Class 0:
Packet latency average = 20.1646
	minimum = 7
	maximum = 33
Network latency average = 20.1646
	minimum = 7
	maximum = 33
Slowest packet = 359
Flit latency average = 20.1708
	minimum = 7
	maximum = 33
Slowest flit = 359
Fragmentation average = 0
	minimum = 0
	maximum = 0
Injected packet rate average = 0.00991667
	minimum = 0.00733333 (at node 7)
	maximum = 0.0133333 (at node 13)
Accepted packet rate average = 0.01
	minimum = 0 (at node 0)
	maximum = 0.16 (at node 2)
Injected flit rate average = 0.00991667
	minimum = 0.00733333 (at node 7)
	maximum = 0.0133333 (at node 13)
Accepted flit rate average= 0.01
	minimum = 0 (at node 0)
	maximum = 0.16 (at node 2)
Injected packet length average = 1
Accepted packet length average = 1
Total in-flight flits = 1 (1 measured)
latency change    = 0.00772169
throughput change = 0.025
Class 0:
Packet latency average = 20.0605
	minimum = 7
	maximum = 35
Network latency average = 20.0605
	minimum = 7
	maximum = 35
Slowest packet = 511
Flit latency average = 20.0662
	minimum = 7
	maximum = 35
Slowest flit = 511
Fragmentation average = 0
	minimum = 0
	maximum = 0
Injected packet rate average = 0.00990625
	minimum = 0.0075 (at node 1)
	maximum = 0.013 (at node 8)
Accepted packet rate average = 0.00990625
	minimum = 0 (at node 0)
	maximum = 0.1585 (at node 2)
Injected flit rate average = 0.00990625
	minimum = 0.0075 (at node 1)
	maximum = 0.013 (at node 8)
Accepted flit rate average= 0.00990625
	minimum = 0 (at node 0)
	maximum = 0.1585 (at node 2)
Injected packet length average = 1
Accepted packet length average = 1
Total in-flight flits = 3 (3 measured)
latency change    = 0.00518668
throughput change = 0.00946372
Draining all recorded packets ...
Draining remaining packets ...
Time taken is 3544 cycles
Class 0:
Packet latency average = 19.0317
	minimum = 7
	maximum = 32
Network latency average = 19.0317
	minimum = 7
	maximum = 32
Slowest packet = 565
Flit latency average = 19.0317
	minimum = 7
	maximum = 32
Slowest flit = 565
Fragmentation average = 0
	minimum = 0
	maximum = 0
Injected packet rate average = 0.00825
	minimum = 0.004 (at node 5)
	maximum = 0.016 (at node 11)
Accepted packet rate average = 0.007875
	minimum = 0 (at node 0)
	maximum = 0.126 (at node 2)
Injected flit rate average = 0.00825
	minimum = 0.004 (at node 5)
	maximum = 0.016 (at node 11)
Accepted flit rate average= 0.007875
	minimum = 0 (at node 0)
	maximum = 0.126 (at node 2)
Injected packet length average = 1
Accepted packet length average = 1
Total in-flight flits = 3 (0 measured)
latency change    = 1
throughput change = 1
Class 0:
Packet latency average = 18.9281
	minimum = 7
	maximum = 33
Network latency average = 18.9281
	minimum = 7
	maximum = 33
Slowest packet = 629
Flit latency average = 18.9281
	minimum = 7
	maximum = 33
Slowest flit = 629
Fragmentation average = 0
	minimum = 0
	maximum = 0
Injected packet rate average = 0.008875
	minimum = 0.006 (at node 8)
	maximum = 0.016 (at node 10)
Accepted packet rate average = 0.0086875
	minimum = 0 (at node 0)
	maximum = 0.139 (at node 2)
Injected flit rate average = 0.008875
	minimum = 0.006 (at node 8)
	maximum = 0.016 (at node 10)
Accepted flit rate average= 0.0086875
	minimum = 0 (at node 0)
	maximum = 0.139 (at node 2)
Injected packet length average = 1
Accepted packet length average = 1
Total in-flight flits = 3 (0 measured)
latency change    = 0.00547803
throughput change = 0.0935252
Class 0:
Packet latency average = 18.9571
	minimum = 7
	maximum = 33
Network latency average = 18.9571
	minimum = 7
	maximum = 33
Slowest packet = 740
Flit latency average = 18.9571
	minimum = 7
	maximum = 33
Slowest flit = 740
Fragmentation average = 0
	minimum = 0
	maximum = 0
Injected packet rate average = 0.00875
	minimum = 0.004 (at node 9)
	maximum = 0.018 (at node 6)
Accepted packet rate average = 0.00875
	minimum = 0 (at node 0)
	maximum = 0.14 (at node 2)
Injected flit rate average = 0.00875
	minimum = 0.004 (at node 9)
	maximum = 0.018 (at node 6)
Accepted flit rate average= 0.00875
	minimum = 0 (at node 0)
	maximum = 0.14 (at node 2)
Injected packet length average = 1
Accepted packet length average = 1
Total in-flight flits = 3 (0 measured)
latency change    = 0.00153427
throughput change = 0.00714286
Warmed up ...Time used is 1500 cycles
Class 0:
Packet latency average = 20.3293
	minimum = 9
	maximum = 32
Network latency average = 20.3293
	minimum = 9
	maximum = 32
Slowest packet = 765
Flit latency average = 20.2118
	minimum = 9
	maximum = 32
Slowest flit = 765
Fragmentation average = 0
	minimum = 0
	maximum = 0
Injected packet rate average = 0.010625
	minimum = 0.002 (at node 2)
	maximum = 0.02 (at node 15)
Accepted packet rate average = 0.010625
	minimum = 0 (at node 0)
	maximum = 0.17 (at node 2)
Injected flit rate average = 0.010625
	minimum = 0.002 (at node 2)
	maximum = 0.02 (at node 15)
Accepted flit rate average= 0.010625
	minimum = 0 (at node 0)
	maximum = 0.17 (at node 2)
Injected packet length average = 1
Accepted packet length average = 1
Total in-flight flits = 3 (3 measured)
latency change    = 0.0674951
throughput change = 0.176471
Class 0:
Packet latency average = 20.3247
	minimum = 7
	maximum = 32
Network latency average = 20.3247
	minimum = 7
	maximum = 32
Slowest packet = 765
Flit latency average = 20.2611
	minimum = 7
	maximum = 32
Slowest flit = 765
Fragmentation average = 0
	minimum = 0
	maximum = 0
Injected packet rate average = 0.01
	minimum = 0.005 (at node 6)
	maximum = 0.016 (at node 3)
Accepted packet rate average = 0.0098125
	minimum = 0 (at node 0)
	maximum = 0.157 (at node 2)
Injected flit rate average = 0.01
	minimum = 0.005 (at node 6)
	maximum = 0.016 (at node 3)
Accepted flit rate average= 0.0098125
	minimum = 0 (at node 0)
	maximum = 0.157 (at node 2)
Injected packet length average = 1
Accepted packet length average = 1
Total in-flight flits = 6 (6 measured)
latency change    = 0.00022598
throughput change = 0.0828025
Class 0:
Packet latency average = 19.9627
	minimum = 7
	maximum = 32
Network latency average = 19.9627
	minimum = 7
	maximum = 32
Slowest packet = 765
Flit latency average = 19.9262
	minimum = 7
	maximum = 32
Slowest flit = 765
Fragmentation average = 0
	minimum = 0
	maximum = 0
Injected packet rate average = 0.01025
	minimum = 0.006 (at node 10)
	maximum = 0.0173333 (at node 3)
Accepted packet rate average = 0.0101667
	minimum = 0 (at node 0)
	maximum = 0.162667 (at node 2)
Injected flit rate average = 0.01025
	minimum = 0.006 (at node 10)
	maximum = 0.0173333 (at node 3)
Accepted flit rate average= 0.0101667
	minimum = 0 (at node 0)
	maximum = 0.162667 (at node 2)
Injected packet length average = 1
Accepted packet length average = 1
Total in-flight flits = 5 (5 measured)
latency change    = 0.0181348
throughput change = 0.0348361
Class 0:
Packet latency average = 20.0571
	minimum = 7
	maximum = 32
Network latency average = 20.0571
	minimum = 7
	maximum = 32
Slowest packet = 765
Flit latency average = 20.0283
	minimum = 7
	maximum = 32
Slowest flit = 765
Fragmentation average = 0
	minimum = 0
	maximum = 0
Injected packet rate average = 0.00996875
	minimum = 0.0055 (at node 2)
	maximum = 0.016 (at node 13)
Accepted packet rate average = 0.0099375
	minimum = 0 (at node 0)
	maximum = 0.159 (at node 2)
Injected flit rate average = 0.00996875
	minimum = 0.0055 (at node 2)
	maximum = 0.016 (at node 13)
Accepted flit rate average= 0.0099375
	minimum = 0 (at node 0)
	maximum = 0.159 (at node 2)
Injected packet length average = 1
Accepted packet length average = 1
Total in-flight flits = 4 (4 measured)
latency change    = 0.0047109
throughput change = 0.0230608
Class 0:
Packet latency average = 19.8413
	minimum = 7
	maximum = 32
Network latency average = 19.8413
	minimum = 7
	maximum = 32
Slowest packet = 765
Flit latency average = 19.82
	minimum = 7
	maximum = 32
Slowest flit = 765
Fragmentation average = 0
	minimum = 0
	maximum = 0
Injected packet rate average = 0.009975
	minimum = 0.0068 (at node 2)
	maximum = 0.0156 (at node 13)
Accepted packet rate average = 0.01
	minimum = 0 (at node 0)
	maximum = 0.16 (at node 2)
Injected flit rate average = 0.009975
	minimum = 0.0068 (at node 2)
	maximum = 0.0156 (at node 13)
Accepted flit rate average= 0.01
	minimum = 0 (at node 0)
	maximum = 0.16 (at node 2)
Injected packet length average = 1
Accepted packet length average = 1
Total in-flight flits = 2 (2 measured)
latency change    = 0.010878
throughput change = 0.00625
Draining all recorded packets ...
Draining remaining packets ...
Time taken is 4040 cycles
Class 0:
Packet latency average = 19.5698
	minimum = 7
	maximum = 32
Network latency average = 19.5698
	minimum = 7
	maximum = 32
Slowest packet = 1184
Flit latency average = 19.5698
	minimum = 7
	maximum = 32
Slowest flit = 1184
Fragmentation average = 0
	minimum = 0
	maximum = 0
Injected packet rate average = 0.01125
	minimum = 0.004 (at node 5)
	maximum = 0.02 (at node 1)
Accepted packet rate average = 0.01075
	minimum = 0 (at node 0)
	maximum = 0.172 (at node 2)
Injected flit rate average = 0.01125
	minimum = 0.004 (at node 5)
	maximum = 0.02 (at node 1)
Accepted flit rate average= 0.01075
	minimum = 0 (at node 0)
	maximum = 0.172 (at node 2)
Injected packet length average = 1
Accepted packet length average = 1
Total in-flight flits = 4 (0 measured)
latency change    = 1
throughput change = 1
Class 0:
Packet latency average = 19.2228
	minimum = 7
	maximum = 33
Network latency average = 19.2228
	minimum = 7
	maximum = 33
Slowest packet = 1293
Flit latency average = 19.2228
	minimum = 7
	maximum = 33
Slowest flit = 1293
Fragmentation average = 0
	minimum = 0
	maximum = 0
Injected packet rate average = 0.0116875
	minimum = 0.007 (at node 8)
	maximum = 0.017 (at node 1)
Accepted packet rate average = 0.0115
	minimum = 0 (at node 0)
	maximum = 0.184 (at node 2)
Injected flit rate average = 0.0116875
	minimum = 0.007 (at node 8)
	maximum = 0.017 (at node 1)
Accepted flit rate average= 0.0115
	minimum = 0 (at node 0)
	maximum = 0.184 (at node 2)
Injected packet length average = 1
Accepted packet length average = 1
Total in-flight flits = 3 (0 measured)
latency change    = 0.0180484
throughput change = 0.0652174
Class 0:
Packet latency average = 19.6154
	minimum = 7
	maximum = 38
Network latency average = 19.6154
	minimum = 7
	maximum = 38
Slowest packet = 1371
Flit latency average = 19.6154
	minimum = 7
	maximum = 38
Slowest flit = 1371
Fragmentation average = 0
	minimum = 0
	maximum = 0
Injected packet rate average = 0.011375
	minimum = 0.006 (at node 5)
	maximum = 0.016 (at node 1)
Accepted packet rate average = 0.011375
	minimum = 0 (at node 0)
	maximum = 0.182 (at node 2)
Injected flit rate average = 0.011375
	minimum = 0.006 (at node 5)
	maximum = 0.016 (at node 1)
Accepted flit rate average= 0.011375
	minimum = 0 (at node 0)
	maximum = 0.182 (at node 2)
Injected packet length average = 1
Accepted packet length average = 1
Total in-flight flits = 3 (0 measured)
latency change    = 0.0200128
throughput change = 0.010989
Warmed up ...Time used is 1500 cycles
Class 0:
Packet latency average = 20.2466
	minimum = 7
	maximum = 33
Network latency average = 20.2466
	minimum = 7
	maximum = 33
Slowest packet = 1486
Flit latency average = 20.3816
	minimum = 7
	maximum = 33
Slowest flit = 1486
Fragmentation average = 0
	minimum = 0
	maximum = 0
Injected packet rate average = 0.009625
	minimum = 0.002 (at node 5)
	maximum = 0.02 (at node 7)
Accepted packet rate average = 0.0095
	minimum = 0 (at node 0)
	maximum = 0.152 (at node 2)
Injected flit rate average = 0.009625
	minimum = 0.002 (at node 5)
	maximum = 0.02 (at node 7)
Accepted flit rate average= 0.0095
	minimum = 0 (at node 0)
	maximum = 0.152 (at node 2)
Injected packet length average = 1
Accepted packet length average = 1
Total in-flight flits = 4 (4 measured)
latency change    = 0.0311752
throughput change = 0.197368
Class 0:
Packet latency average = 19.85
	minimum = 7
	maximum = 33
Network latency average = 19.85
	minimum = 7
	maximum = 33
Slowest packet = 1486
Flit latency average = 19.9301
	minimum = 7
	maximum = 33
Slowest flit = 1486
Fragmentation average = 0
	minimum = 0
	maximum = 0
Injected packet rate average = 0.0089375
	minimum = 0.004 (at node 2)
	maximum = 0.014 (at node 3)
Accepted packet rate average = 0.0089375
	minimum = 0 (at node 0)
	maximum = 0.143 (at node 2)
Injected flit rate average = 0.0089375
	minimum = 0.004 (at node 2)
	maximum = 0.014 (at node 3)
Accepted flit rate average= 0.0089375
	minimum = 0 (at node 0)
	maximum = 0.143 (at node 2)
Injected packet length average = 1
Accepted packet length average = 1
Total in-flight flits = 3 (3 measured)
latency change    = 0.0199786
throughput change = 0.0629371
Class 0:
Packet latency average = 19.8111
	minimum = 7
	maximum = 33
Network latency average = 19.8111
	minimum = 7
	maximum = 33
Slowest packet = 1486
Flit latency average = 19.8636
	minimum = 7
	maximum = 33
Slowest flit = 1486
Fragmentation average = 0
	minimum = 0
	maximum = 0
Injected packet rate average = 0.00916667
	minimum = 0.00333333 (at node 2)
	maximum = 0.012 (at node 1)
Accepted packet rate average = 0.00916667
	minimum = 0 (at node 0)
	maximum = 0.146667 (at node 2)
Injected flit rate average = 0.00916667
	minimum = 0.00333333 (at node 2)
	maximum = 0.012 (at node 1)
Accepted flit rate average= 0.00916667
	minimum = 0 (at node 0)
	maximum = 0.146667 (at node 2)
Injected packet length average = 1
Accepted packet length average = 1
Total in-flight flits = 3 (3 measured)
latency change    = 0.00196557
throughput change = 0.025
Class 0:
Packet latency average = 19.8896
	minimum = 7
	maximum = 33
Network latency average = 19.8896
	minimum = 7
	maximum = 33
Slowest packet = 1486
Flit latency average = 19.9272
	minimum = 7
	maximum = 33
Slowest flit = 1486
Fragmentation average = 0
	minimum = 0
	maximum = 0
Injected packet rate average = 0.00946875
	minimum = 0.005 (at node 2)
	maximum = 0.013 (at node 1)
Accepted packet rate average = 0.0094375
	minimum = 0 (at node 0)
	maximum = 0.151 (at node 2)
Injected flit rate average = 0.00946875
	minimum = 0.005 (at node 2)
	maximum = 0.013 (at node 1)
Accepted flit rate average= 0.0094375
	minimum = 0 (at node 0)
	maximum = 0.151 (at node 2)
Injected packet length average = 1
Accepted packet length average = 1
Total in-flight flits = 4 (4 measured)
latency change    = 0.00395041
throughput change = 0.0286976
Class 0:
Packet latency average = 19.8517
	minimum = 7
	maximum = 33
Network latency average = 19.8517
	minimum = 7
	maximum = 33
Slowest packet = 1486
Flit latency average = 19.8807
	minimum = 7
	maximum = 33
Slowest flit = 1486
Fragmentation average = 0
	minimum = 0
	maximum = 0
Injected packet rate average = 0.009775
	minimum = 0.0072 (at node 6)
	maximum = 0.0124 (at node 1)
Accepted packet rate average = 0.00985
	minimum = 0 (at node 0)
	maximum = 0.1576 (at node 2)
Injected flit rate average = 0.009775
	minimum = 0.0072 (at node 6)
	maximum = 0.0124 (at node 1)
Accepted flit rate average= 0.00985
	minimum = 0 (at node 0)
	maximum = 0.1576 (at node 2)
Injected packet length average = 1
Accepted packet length average = 1
Total in-flight flits = 0 (0 measured)
latency change    = 0.00191267
throughput change = 0.0418782
Draining all recorded packets ...
Draining remaining packets ...
Time taken is 4001 cycles
Class 0:
Packet latency average = 20.3797
	minimum = 7
	maximum = 33
Network latency average = 20.3797
	minimum = 7
	maximum = 33
Slowest packet = 1852
Flit latency average = 20.3797
	minimum = 7
	maximum = 33
Slowest flit = 1852
Fragmentation average = 0
	minimum = 0
	maximum = 0
Injected packet rate average = 0.010375
	minimum = 0.006 (at node 3)
	maximum = 0.018 (at node 7)
Accepted packet rate average = 0.009875
	minimum = 0 (at node 0)
	maximum = 0.158 (at node 2)
Injected flit rate average = 0.010375
	minimum = 0.006 (at node 3)
	maximum = 0.018 (at node 7)
Accepted flit rate average= 0.009875
	minimum = 0 (at node 0)
	maximum = 0.158 (at node 2)
Injected packet length average = 1
Accepted packet length average = 1
Total in-flight flits = 4 (0 measured)
latency change    = 1
throughput change = 1
Class 0:
Packet latency average = 19.9641
	minimum = 7
	maximum = 35
Network latency average = 19.9641
	minimum = 7
	maximum = 35
Slowest packet = 1918
Flit latency average = 19.9641
	minimum = 7
	maximum = 35
Slowest flit = 1918
Fragmentation average = 0
	minimum = 0
	maximum = 0
Injected packet rate average = 0.0105625
	minimum = 0.006 (at node 9)
	maximum = 0.018 (at node 7)
Accepted packet rate average = 0.0104375
	minimum = 0 (at node 0)
	maximum = 0.167 (at node 2)
Injected flit rate average = 0.0105625
	minimum = 0.006 (at node 9)
	maximum = 0.018 (at node 7)
Accepted flit rate average= 0.0104375
	minimum = 0 (at node 0)
	maximum = 0.167 (at node 2)
Injected packet length average = 1
Accepted packet length average = 1
Total in-flight flits = 2 (0 measured)
latency change    = 0.0208212
throughput change = 0.0538922
Class 0:
Packet latency average = 19.641
	minimum = 7
	maximum = 32
Network latency average = 19.641
	minimum = 7
	maximum = 32
Slowest packet = 2013
Flit latency average = 19.641
	minimum = 7
	maximum = 32
Slowest flit = 2013
Fragmentation average = 0
	minimum = 0
	maximum = 0
Injected packet rate average = 0.01
	minimum = 0.008 (at node 0)
	maximum = 0.016 (at node 13)
Accepted packet rate average = 0.00975
	minimum = 0 (at node 0)
	maximum = 0.156 (at node 2)
Injected flit rate average = 0.01
	minimum = 0.008 (at node 0)
	maximum = 0.016 (at node 13)
Accepted flit rate average= 0.00975
	minimum = 0 (at node 0)
	maximum = 0.156 (at node 2)
Injected packet length average = 1
Accepted packet length average = 1
Total in-flight flits = 4 (0 measured)
latency change    = 0.0164475
throughput change = 0.0705128
Warmed up ...Time used is 1500 cycles
Class 0:
Packet latency average = 19.2805
	minimum = 7
	maximum = 32
Network latency average = 19.2805
	minimum = 7
	maximum = 32
Slowest packet = 2096
Flit latency average = 19.4651
	minimum = 7
	maximum = 32
Slowest flit = 2083
Fragmentation average = 0
	minimum = 0
	maximum = 0
Injected packet rate average = 0.011
	minimum = 0 (at node 14)
	maximum = 0.02 (at node 10)
Accepted packet rate average = 0.01075
	minimum = 0 (at node 0)
	maximum = 0.172 (at node 2)
Injected flit rate average = 0.011
	minimum = 0 (at node 14)
	maximum = 0.02 (at node 10)
Accepted flit rate average= 0.01075
	minimum = 0 (at node 0)
	maximum = 0.172 (at node 2)
Injected packet length average = 1
Accepted packet length average = 1
Total in-flight flits = 6 (6 measured)
latency change    = 0.0186996
throughput change = 0.0930233
Class 0:
Packet latency average = 19.4331
	minimum = 7
	maximum = 32
Network latency average = 19.4331
	minimum = 7
	maximum = 32
Slowest packet = 2096
Flit latency average = 19.528
	minimum = 7
	maximum = 32
Slowest flit = 2083
Fragmentation average = 0
	minimum = 0
	maximum = 0
Injected packet rate average = 0.0100625
	minimum = 0.005 (at node 14)
	maximum = 0.014 (at node 6)
Accepted packet rate average = 0.0100625
	minimum = 0 (at node 0)
	maximum = 0.161 (at node 2)
Injected flit rate average = 0.0100625
	minimum = 0.005 (at node 14)
	maximum = 0.014 (at node 6)
Accepted flit rate average= 0.0100625
	minimum = 0 (at node 0)
	maximum = 0.161 (at node 2)
Injected packet length average = 1
Accepted packet length average = 1
Total in-flight flits = 4 (4 measured)
latency change    = 0.00785428
throughput change = 0.068323
Class 0:
Packet latency average = 19.3915
	minimum = 7
	maximum = 32
Network latency average = 19.3915
	minimum = 7
	maximum = 32
Slowest packet = 2096
Flit latency average = 19.4561
	minimum = 7
	maximum = 32
Slowest flit = 2083
Fragmentation average = 0
	minimum = 0
	maximum = 0
Injected packet rate average = 0.00991667
	minimum = 0.00533333 (at node 14)
	maximum = 0.014 (at node 10)
Accepted packet rate average = 0.00995833
	minimum = 0 (at node 0)
	maximum = 0.159333 (at node 2)
Injected flit rate average = 0.00991667
	minimum = 0.00533333 (at node 14)
	maximum = 0.014 (at node 10)
Accepted flit rate average= 0.00995833
	minimum = 0 (at node 0)
	maximum = 0.159333 (at node 2)
Injected packet length average = 1
Accepted packet length average = 1
Total in-flight flits = 3 (3 measured)
latency change    = 0.0021469
throughput change = 0.0104603
Class 0:
Packet latency average = 19.5246
	minimum = 7
	maximum = 33
Network latency average = 19.5246
	minimum = 7
	maximum = 33
Slowest packet = 2326
Flit latency average = 19.5728
	minimum = 7
	maximum = 33
Slowest flit = 2326
Fragmentation average = 0
	minimum = 0
	maximum = 0
Injected packet rate average = 0.00965625
	minimum = 0.006 (at node 14)
	maximum = 0.0125 (at node 9)
Accepted packet rate average = 0.00965625
	minimum = 0 (at node 0)
	maximum = 0.1545 (at node 2)
Injected flit rate average = 0.00965625
	minimum = 0.006 (at node 14)
	maximum = 0.0125 (at node 9)
Accepted flit rate average= 0.00965625
	minimum = 0 (at node 0)
	maximum = 0.1545 (at node 2)
Injected packet length average = 1
Accepted packet length average = 1
Total in-flight flits = 4 (4 measured)
latency change    = 0.00681709
throughput change = 0.0312837
Class 0:
Packet latency average = 19.7846
	minimum = 7
	maximum = 33
Network latency average = 19.7846
	minimum = 7
	maximum = 33
Slowest packet = 2326
Flit latency average = 19.8198
	minimum = 7
	maximum = 33
Slowest flit = 2326
Fragmentation average = 0
	minimum = 0
	maximum = 0
Injected packet rate average = 0.0098
	minimum = 0.006 (at node 3)
	maximum = 0.0124 (at node 7)
Accepted packet rate average = 0.00985
	minimum = 0 (at node 0)
	maximum = 0.1576 (at node 2)
Injected flit rate average = 0.0098
	minimum = 0.006 (at node 3)
	maximum = 0.0124 (at node 7)
Accepted flit rate average= 0.00985
	minimum = 0 (at node 0)
	maximum = 0.1576 (at node 2)
Injected packet length average = 1
Accepted packet length average = 1
Total in-flight flits = 2 (2 measured)
latency change    = 0.0131428
throughput change = 0.0196701
Draining all recorded packets ...
Draining remaining packets ...
Time taken is 4043 cycles
Class 0:
Packet latency average = 20.141
	minimum = 7
	maximum = 34
Network latency average = 20.141
	minimum = 7
	maximum = 34
Slowest packet = 2520
Flit latency average = 20.141
	minimum = 7
	maximum = 34
Slowest flit = 2520
Fragmentation average = 0
	minimum = 0
	maximum = 0
Injected packet rate average = 0.010125
	minimum = 0.002 (at node 0)
	maximum = 0.016 (at node 8)
Accepted packet rate average = 0.00975
	minimum = 0 (at node 0)
	maximum = 0.156 (at node 2)
Injected flit rate average = 0.010125
	minimum = 0.002 (at node 0)
	maximum = 0.016 (at node 8)
Accepted flit rate average= 0.00975
	minimum = 0 (at node 0)
	maximum = 0.156 (at node 2)
Injected packet length average = 1
Accepted packet length average = 1
Total in-flight flits = 3 (0 measured)
latency change    = 1
throughput change = 1
Class 0:
Packet latency average = 20.1274
	minimum = 7
	maximum = 35
Network latency average = 20.1274
	minimum = 7
	maximum = 35
Slowest packet = 2601
Flit latency average = 20.1274
	minimum = 7
	maximum = 35
Slowest flit = 2601
Fragmentation average = 0
	minimum = 0
	maximum = 0
Injected packet rate average = 0.01
	minimum = 0.008 (at node 0)
	maximum = 0.013 (at node 4)
Accepted packet rate average = 0.0098125
	minimum = 0 (at node 0)
	maximum = 0.157 (at node 2)
Injected flit rate average = 0.01
	minimum = 0.008 (at node 0)
	maximum = 0.013 (at node 4)
Accepted flit rate average= 0.0098125
	minimum = 0 (at node 0)
	maximum = 0.157 (at node 2)
Injected packet length average = 1
Accepted packet length average = 1
Total in-flight flits = 3 (0 measured)
latency change    = 0.00067754
throughput change = 0.00636943
Class 0:
Packet latency average = 19.6962
	minimum = 7
	maximum = 33
Network latency average = 19.6962
	minimum = 7
	maximum = 33
Slowest packet = 2703
Flit latency average = 19.6962
	minimum = 7
	maximum = 33
Slowest flit = 2703
Fragmentation average = 0
	minimum = 0
	maximum = 0
Injected packet rate average = 0.0105
	minimum = 0.004 (at node 4)
	maximum = 0.02 (at node 11)
Accepted packet rate average = 0.009875
	minimum = 0 (at node 0)
	maximum = 0.158 (at node 2)
Injected flit rate average = 0.0105
	minimum = 0.004 (at node 4)
	maximum = 0.02 (at node 11)
Accepted flit rate average= 0.009875
	minimum = 0 (at node 0)
	maximum = 0.158 (at node 2)
Injected packet length average = 1
Accepted packet length average = 1
Total in-flight flits = 8 (0 measured)
latency change    = 0.0218918
throughput change = 0.00632911
Warmed up ...Time used is 1500 cycles
Class 0:
Packet latency average = 19.8689
	minimum = 7
	maximum = 33
Network latency average = 19.8689
	minimum = 7
	maximum = 33
Slowest packet = 2731
Flit latency average = 20.4493
	minimum = 7
	maximum = 33
Slowest flit = 2717
Fragmentation average = 0
	minimum = 0
	maximum = 0
Injected packet rate average = 0.007875
	minimum = 0.002 (at node 8)
	maximum = 0.016 (at node 11)
Accepted packet rate average = 0.008625
	minimum = 0 (at node 0)
	maximum = 0.138 (at node 2)
Injected flit rate average = 0.007875
	minimum = 0.002 (at node 8)
	maximum = 0.016 (at node 11)
Accepted flit rate average= 0.008625
	minimum = 0 (at node 0)
	maximum = 0.138 (at node 2)
Injected packet length average = 1
Accepted packet length average = 1
Total in-flight flits = 2 (2 measured)
latency change    = 0.00868948
throughput change = 0.144928
Class 0:
Packet latency average = 20.7626
	minimum = 7
	maximum = 33
Network latency average = 20.7626
	minimum = 7
	maximum = 33
Slowest packet = 2731
Flit latency average = 20.9864
	minimum = 7
	maximum = 33
Slowest flit = 2717
Fragmentation average = 0
	minimum = 0
	maximum = 0
Injected packet rate average = 0.0089375
	minimum = 0.004 (at node 2)
	maximum = 0.015 (at node 11)
Accepted packet rate average = 0.0091875
	minimum = 0 (at node 0)
	maximum = 0.147 (at node 2)
Injected flit rate average = 0.0089375
	minimum = 0.004 (at node 2)
	maximum = 0.015 (at node 11)
Accepted flit rate average= 0.0091875
	minimum = 0 (at node 0)
	maximum = 0.147 (at node 2)
Injected packet length average = 1
Accepted packet length average = 1
Total in-flight flits = 4 (4 measured)
latency change    = 0.0430456
throughput change = 0.0612245
Class 0:
Packet latency average = 20.75
	minimum = 7
	maximum = 36
Network latency average = 20.75
	minimum = 7
	maximum = 36
Slowest packet = 2892
Flit latency average = 20.8922
	minimum = 7
	maximum = 36
Slowest flit = 2892
Fragmentation average = 0
	minimum = 0
	maximum = 0
Injected packet rate average = 0.0095
	minimum = 0.004 (at node 9)
	maximum = 0.014 (at node 11)
Accepted packet rate average = 0.00966667
	minimum = 0 (at node 0)
	maximum = 0.154667 (at node 2)
Injected flit rate average = 0.0095
	minimum = 0.004 (at node 9)
	maximum = 0.014 (at node 11)
Accepted flit rate average= 0.00966667
	minimum = 0 (at node 0)
	maximum = 0.154667 (at node 2)
Injected packet length average = 1
Accepted packet length average = 1
Total in-flight flits = 4 (4 measured)
latency change    = 0.000606744
throughput change = 0.049569
Class 0:
Packet latency average = 20.5802
	minimum = 7
	maximum = 36
Network latency average = 20.5802
	minimum = 7
	maximum = 36
Slowest packet = 2892
Flit latency average = 20.6944
	minimum = 7
	maximum = 36
Slowest flit = 2892
Fragmentation average = 0
	minimum = 0
	maximum = 0
Injected packet rate average = 0.00921875
	minimum = 0.003 (at node 9)
	maximum = 0.015 (at node 11)
Accepted packet rate average = 0.00940625
	minimum = 0 (at node 0)
	maximum = 0.1505 (at node 2)
Injected flit rate average = 0.00921875
	minimum = 0.003 (at node 9)
	maximum = 0.015 (at node 11)
Accepted flit rate average= 0.00940625
	minimum = 0 (at node 0)
	maximum = 0.1505 (at node 2)
Injected packet length average = 1
Accepted packet length average = 1
Total in-flight flits = 2 (2 measured)
latency change    = 0.00825041
throughput change = 0.0276855
Class 0:
Packet latency average = 20.4647
	minimum = 7
	maximum = 36
Network latency average = 20.4647
	minimum = 7
	maximum = 36
Slowest packet = 2892
Flit latency average = 20.5585
	minimum = 7
	maximum = 36
Slowest flit = 2892
Fragmentation average = 0
	minimum = 0
	maximum = 0
Injected packet rate average = 0.00925
	minimum = 0.004 (at node 9)
	maximum = 0.014 (at node 11)
Accepted packet rate average = 0.0094
	minimum = 0 (at node 0)
	maximum = 0.1504 (at node 2)
Injected flit rate average = 0.00925
	minimum = 0.004 (at node 9)
	maximum = 0.014 (at node 11)
Accepted flit rate average= 0.0094
	minimum = 0 (at node 0)
	maximum = 0.1504 (at node 2)
Injected packet length average = 1
Accepted packet length average = 1
Total in-flight flits = 2 (2 measured)
latency change    = 0.00564538
throughput change = 0.000664894
Draining all recorded packets ...
Draining remaining packets ...
Time taken is 4026 cycles
Class 0:
Packet latency average = 18.8182
	minimum = 7
	maximum = 32
Network latency average = 18.8182
	minimum = 7
	maximum = 32
Slowest packet = 3107
Flit latency average = 18.8182
	minimum = 7
	maximum = 32
Slowest flit = 3107
Fragmentation average = 0
	minimum = 0
	maximum = 0
Injected packet rate average = 0.008375
	minimum = 0 (at node 15)
	maximum = 0.02 (at node 3)
Accepted packet rate average = 0.00825
	minimum = 0 (at node 0)
	maximum = 0.132 (at node 2)
Injected flit rate average = 0.008375
	minimum = 0 (at node 15)
	maximum = 0.02 (at node 3)
Accepted flit rate average= 0.00825
	minimum = 0 (at node 0)
	maximum = 0.132 (at node 2)
Injected packet length average = 1
Accepted packet length average = 1
Total in-flight flits = 1 (0 measured)
latency change    = 1
throughput change = 1
Class 0:
Packet latency average = 19.2715
	minimum = 7
	maximum = 32
Network latency average = 19.2715
	minimum = 7
	maximum = 32
Slowest packet = 3107
Flit latency average = 19.2715
	minimum = 7
	maximum = 32
Slowest flit = 3107
Fragmentation average = 0
	minimum = 0
	maximum = 0
Injected packet rate average = 0.0095625
	minimum = 0.006 (at node 2)
	maximum = 0.016 (at node 3)
Accepted packet rate average = 0.0094375
	minimum = 0 (at node 0)
	maximum = 0.151 (at node 2)
Injected flit rate average = 0.0095625
	minimum = 0.006 (at node 2)
	maximum = 0.016 (at node 3)
Accepted flit rate average= 0.0094375
	minimum = 0 (at node 0)
	maximum = 0.151 (at node 2)
Injected packet length average = 1
Accepted packet length average = 1
Total in-flight flits = 2 (0 measured)
latency change    = 0.0235239
throughput change = 0.125828
Class 0:
Packet latency average = 21.2027
	minimum = 7
	maximum = 34
Network latency average = 21.2027
	minimum = 7
	maximum = 34
Slowest packet = 3303
Flit latency average = 21.2027
	minimum = 7
	maximum = 34
Slowest flit = 3303
Fragmentation average = 0
	minimum = 0
	maximum = 0
Injected packet rate average = 0.00925
	minimum = 0.002 (at node 5)
	maximum = 0.016 (at node 7)
Accepted packet rate average = 0.00925
	minimum = 0 (at node 0)
	maximum = 0.148 (at node 2)
Injected flit rate average = 0.00925
	minimum = 0.002 (at node 5)
	maximum = 0.016 (at node 7)
Accepted flit rate average= 0.00925
	minimum = 0 (at node 0)
	maximum = 0.148 (at node 2)
Injected packet length average = 1
Accepted packet length average = 1
Total in-flight flits = 2 (0 measured)
latency change    = 0.0910818
throughput change = 0.0202703
Warmed up ...Time used is 1500 cycles
Class 0:
Packet latency average = 20.7381
	minimum = 7
	maximum = 32
Network latency average = 20.7381
	minimum = 7
	maximum = 32
Slowest packet = 3333
Flit latency average = 20.6512
	minimum = 7
	maximum = 32
Slowest flit = 3333
Fragmentation average = 0
	minimum = 0
	maximum = 0
Injected packet rate average = 0.01125
	minimum = 0.004 (at node 2)
	maximum = 0.028 (at node 12)
Accepted packet rate average = 0.01075
	minimum = 0 (at node 0)
	maximum = 0.172 (at node 2)
Injected flit rate average = 0.01125
	minimum = 0.004 (at node 2)
	maximum = 0.028 (at node 12)
Accepted flit rate average= 0.01075
	minimum = 0 (at node 0)
	maximum = 0.172 (at node 2)
Injected packet length average = 1
Accepted packet length average = 1
Total in-flight flits = 6 (6 measured)
latency change    = 0.0224036
throughput change = 0.139535
Class 0:
Packet latency average = 20.118
	minimum = 7
	maximum = 33
Network latency average = 20.118
	minimum = 7
	maximum = 33
Slowest packet = 3409
Flit latency average = 20.0833
	minimum = 7
	maximum = 33
Slowest flit = 3409
Fragmentation average = 0
	minimum = 0
	maximum = 0
Injected packet rate average = 0.0111875
	minimum = 0.007 (at node 2)
	maximum = 0.017 (at node 10)
Accepted packet rate average = 0.01125
	minimum = 0 (at node 0)
	maximum = 0.18 (at node 2)
Injected flit rate average = 0.0111875
	minimum = 0.007 (at node 2)
	maximum = 0.017 (at node 10)
Accepted flit rate average= 0.01125
	minimum = 0 (at node 0)
	maximum = 0.18 (at node 2)
Injected packet length average = 1
Accepted packet length average = 1
Total in-flight flits = 1 (1 measured)
latency change    = 0.0308241
throughput change = 0.0444444
Class 0:
Packet latency average = 19.9883
	minimum = 7
	maximum = 34
Network latency average = 19.9883
	minimum = 7
	maximum = 34
Slowest packet = 3534
Flit latency average = 19.9651
	minimum = 7
	maximum = 34
Slowest flit = 3534
Fragmentation average = 0
	minimum = 0
	maximum = 0
Injected packet rate average = 0.01075
	minimum = 0.00733333 (at node 2)
	maximum = 0.0153333 (at node 14)
Accepted packet rate average = 0.01075
	minimum = 0 (at node 0)
	maximum = 0.172 (at node 2)
Injected flit rate average = 0.01075
	minimum = 0.00733333 (at node 2)
	maximum = 0.0153333 (at node 14)
Accepted flit rate average= 0.01075
	minimum = 0 (at node 0)
	maximum = 0.172 (at node 2)
Injected packet length average = 1
Accepted packet length average = 1
Total in-flight flits = 2 (2 measured)
latency change    = 0.00648862
throughput change = 0.0465116
Class 0:
Packet latency average = 19.7453
	minimum = 7
	maximum = 34
Network latency average = 19.7453
	minimum = 7
	maximum = 34
Slowest packet = 3534
Flit latency average = 19.7281
	minimum = 7
	maximum = 34
Slowest flit = 3534
Fragmentation average = 0
	minimum = 0
	maximum = 0
Injected packet rate average = 0.01
	minimum = 0.006 (at node 2)
	maximum = 0.013 (at node 0)
Accepted packet rate average = 0.01
	minimum = 0 (at node 0)
	maximum = 0.16 (at node 2)
Injected flit rate average = 0.01
	minimum = 0.006 (at node 2)
	maximum = 0.013 (at node 0)
Accepted flit rate average= 0.01
	minimum = 0 (at node 0)
	maximum = 0.16 (at node 2)
Injected packet length average = 1
Accepted packet length average = 1
Total in-flight flits = 2 (2 measured)
latency change    = 0.0123066
throughput change = 0.075
Class 0:
Packet latency average = 19.8727
	minimum = 7
	maximum = 39
Network latency average = 19.8727
	minimum = 7
	maximum = 39
Slowest packet = 3656
Flit latency average = 19.8579
	minimum = 7
	maximum = 39
Slowest flit = 3656
Fragmentation average = 0
	minimum = 0
	maximum = 0
Injected packet rate average = 0.0097
	minimum = 0.0052 (at node 2)
	maximum = 0.0132 (at node 10)
Accepted packet rate average = 0.009675
	minimum = 0 (at node 0)
	maximum = 0.1548 (at node 2)
Injected flit rate average = 0.0097
	minimum = 0.0052 (at node 2)
	maximum = 0.0132 (at node 10)
Accepted flit rate average= 0.009675
	minimum = 0 (at node 0)
	maximum = 0.1548 (at node 2)
Injected packet length average = 1
Accepted packet length average = 1
Total in-flight flits = 3 (3 measured)
latency change    = 0.00641302
throughput change = 0.0335917
Class 0:
Packet latency average = 19.8627
	minimum = 7
	maximum = 39
Network latency average = 19.8627
	minimum = 7
	maximum = 39
Slowest packet = 3656
Flit latency average = 19.8503
	minimum = 7
	maximum = 39
Slowest flit = 3656
Fragmentation average = 0
	minimum = 0
	maximum = 0
Injected packet rate average = 0.009625
	minimum = 0.00533333 (at node 2)
	maximum = 0.0143333 (at node 10)
Accepted packet rate average = 0.00960417
	minimum = 0 (at node 0)
	maximum = 0.153667 (at node 2)
Injected flit rate average = 0.009625
	minimum = 0.00533333 (at node 2)
	maximum = 0.0143333 (at node 10)
Accepted flit rate average= 0.00960417
	minimum = 0 (at node 0)
	maximum = 0.153667 (at node 2)
Injected packet length average = 1
Accepted packet length average = 1
Total in-flight flits = 3 (3 measured)
latency change    = 0.000502558
throughput change = 0.00737527
Class 0:
Packet latency average = 19.6976
	minimum = 7
	maximum = 39
Network latency average = 19.6976
	minimum = 7
	maximum = 39
Slowest packet = 3656
Flit latency average = 19.6876
	minimum = 7
	maximum = 39
Slowest flit = 3656
Fragmentation average = 0
	minimum = 0
	maximum = 0
Injected packet rate average = 0.00966071
	minimum = 0.006 (at node 2)
	maximum = 0.0131429 (at node 11)
Accepted packet rate average = 0.00966071
	minimum = 0 (at node 0)
	maximum = 0.154571 (at node 2)
Injected flit rate average = 0.00966071
	minimum = 0.006 (at node 2)
	maximum = 0.0131429 (at node 11)
Accepted flit rate average= 0.00966071
	minimum = 0 (at node 0)
	maximum = 0.154571 (at node 2)
Injected packet length average = 1
Accepted packet length average = 1
Total in-flight flits = 2 (2 measured)
latency change    = 0.00838463
throughput change = 0.00585336
Draining all recorded packets ...
Draining remaining packets ...
Time taken is 5040 cycles
Class 0:
Packet latency average = 20.625
	minimum = 7
	maximum = 32
Network latency average = 20.625
	minimum = 7
	maximum = 32
Slowest packet = 3884
Flit latency average = 20.625
	minimum = 7
	maximum = 32
Slowest flit = 3884
Fragmentation average = 0
	minimum = 0
	maximum = 0
Injected packet rate average = 0.009125
	minimum = 0 (at node 10)
	maximum = 0.02 (at node 14)
Accepted packet rate average = 0.009
	minimum = 0 (at node 0)
	maximum = 0.144 (at node 2)
Injected flit rate average = 0.009125
	minimum = 0 (at node 10)
	maximum = 0.02 (at node 14)
Accepted flit rate average= 0.009
	minimum = 0 (at node 0)
	maximum = 0.144 (at node 2)
Injected packet length average = 1
Accepted packet length average = 1
Total in-flight flits = 1 (0 measured)
latency change    = 1
throughput change = 1
Class 0:
Packet latency average = 19.7862
	minimum = 7
	maximum = 32
Network latency average = 19.7862
	minimum = 7
	maximum = 32
Slowest packet = 3884
Flit latency average = 19.7862
	minimum = 7
	maximum = 32
Slowest flit = 3884
Fragmentation average = 0
	minimum = 0
	maximum = 0
Injected packet rate average = 0.01025
	minimum = 0.004 (at node 10)
	maximum = 0.017 (at node 14)
Accepted packet rate average = 0.0099375
	minimum = 0 (at node 0)
	maximum = 0.159 (at node 2)
Injected flit rate average = 0.01025
	minimum = 0.004 (at node 10)
	maximum = 0.017 (at node 14)
Accepted flit rate average= 0.0099375
	minimum = 0 (at node 0)
	maximum = 0.159 (at node 2)
Injected packet length average = 1
Accepted packet length average = 1
Total in-flight flits = 5 (0 measured)
latency change    = 0.0423951
throughput change = 0.0943396
Class 0:
Packet latency average = 19.7045
	minimum = 7
	maximum = 34
Network latency average = 19.7045
	minimum = 7
	maximum = 34
Slowest packet = 4046
Flit latency average = 19.7045
	minimum = 7
	maximum = 34
Slowest flit = 4046
Fragmentation average = 0
	minimum = 0
	maximum = 0
Injected packet rate average = 0.011
	minimum = 0.006 (at node 2)
	maximum = 0.02 (at node 0)
Accepted packet rate average = 0.011
	minimum = 0 (at node 0)
	maximum = 0.176 (at node 2)
Injected flit rate average = 0.011
	minimum = 0.006 (at node 2)
	maximum = 0.02 (at node 0)
Accepted flit rate average= 0.011
	minimum = 0 (at node 0)
	maximum = 0.176 (at node 2)
Injected packet length average = 1
Accepted packet length average = 1
Total in-flight flits = 5 (0 measured)
latency change    = 0.00414209
throughput change = 0.0965909
Warmed up ...Time used is 1500 cycles
Class 0:
Packet latency average = 19.7377
	minimum = 7
	maximum = 32
Network latency average = 19.7377
	minimum = 7
	maximum = 32
Slowest packet = 4143
Flit latency average = 19.7727
	minimum = 7
	maximum = 32
Slowest flit = 4143
Fragmentation average = 0
	minimum = 0
	maximum = 0
Injected packet rate average = 0.008375
	minimum = 0.002 (at node 6)
	maximum = 0.014 (at node 2)
Accepted packet rate average = 0.00825
	minimum = 0 (at node 0)
	maximum = 0.132 (at node 2)
Injected flit rate average = 0.008375
	minimum = 0.002 (at node 6)
	maximum = 0.014 (at node 2)
Accepted flit rate average= 0.00825
	minimum = 0 (at node 0)
	maximum = 0.132 (at node 2)
Injected packet length average = 1
Accepted packet length average = 1
Total in-flight flits = 6 (6 measured)
latency change    = 0.00168001
throughput change = 0.333333
Class 0:
Packet latency average = 19.3056
	minimum = 7
	maximum = 34
Network latency average = 19.3056
	minimum = 7
	maximum = 34
Slowest packet = 4259
Flit latency average = 19.3356
	minimum = 7
	maximum = 34
Slowest flit = 4259
Fragmentation average = 0
	minimum = 0
	maximum = 0
Injected packet rate average = 0.0093125
	minimum = 0.004 (at node 7)
	maximum = 0.016 (at node 8)
Accepted packet rate average = 0.0093125
	minimum = 0 (at node 0)
	maximum = 0.149 (at node 2)
Injected flit rate average = 0.0093125
	minimum = 0.004 (at node 7)
	maximum = 0.016 (at node 8)
Accepted flit rate average= 0.0093125
	minimum = 0 (at node 0)
	maximum = 0.149 (at node 2)
Injected packet length average = 1
Accepted packet length average = 1
Total in-flight flits = 5 (5 measured)
latency change    = 0.0223847
throughput change = 0.114094
Class 0:
Packet latency average = 19.9648
	minimum = 7
	maximum = 34
Network latency average = 19.9648
	minimum = 7
	maximum = 34
Slowest packet = 4259
Flit latency average = 19.9698
	minimum = 7
	maximum = 34
Slowest flit = 4259
Fragmentation average = 0
	minimum = 0
	maximum = 0
Injected packet rate average = 0.00958333
	minimum = 0.00533333 (at node 7)
	maximum = 0.0166667 (at node 8)
Accepted packet rate average = 0.00966667
	minimum = 0 (at node 0)
	maximum = 0.154667 (at node 2)
Injected flit rate average = 0.00958333
	minimum = 0.00533333 (at node 7)
	maximum = 0.0166667 (at node 8)
Accepted flit rate average= 0.00966667
	minimum = 0 (at node 0)
	maximum = 0.154667 (at node 2)
Injected packet length average = 1
Accepted packet length average = 1
Total in-flight flits = 3 (3 measured)
latency change    = 0.0330183
throughput change = 0.0366379
Class 0:
Packet latency average = 19.8968
	minimum = 7
	maximum = 34
Network latency average = 19.8968
	minimum = 7
	maximum = 34
Slowest packet = 4259
Flit latency average = 19.9016
	minimum = 7
	maximum = 34
Slowest flit = 4259
Fragmentation average = 0
	minimum = 0
	maximum = 0
Injected packet rate average = 0.00978125
	minimum = 0.006 (at node 7)
	maximum = 0.014 (at node 8)
Accepted packet rate average = 0.00984375
	minimum = 0 (at node 0)
	maximum = 0.1575 (at node 2)
Injected flit rate average = 0.00978125
	minimum = 0.006 (at node 7)
	maximum = 0.014 (at node 8)
Accepted flit rate average= 0.00984375
	minimum = 0 (at node 0)
	maximum = 0.1575 (at node 2)
Injected packet length average = 1
Accepted packet length average = 1
Total in-flight flits = 3 (3 measured)
latency change    = 0.00341681
throughput change = 0.0179894
Class 0:
Packet latency average = 19.9899
	minimum = 7
	maximum = 34
Network latency average = 19.9899
	minimum = 7
	maximum = 34
Slowest packet = 4259
Flit latency average = 19.9925
	minimum = 7
	maximum = 34
Slowest flit = 4259
Fragmentation average = 0
	minimum = 0
	maximum = 0
Injected packet rate average = 0.01005
	minimum = 0.0064 (at node 7)
	maximum = 0.016 (at node 8)
Accepted packet rate average = 0.010025
	minimum = 0 (at node 0)
	maximum = 0.1604 (at node 2)
Injected flit rate average = 0.01005
	minimum = 0.0064 (at node 7)
	maximum = 0.016 (at node 8)
Accepted flit rate average= 0.010025
	minimum = 0 (at node 0)
	maximum = 0.1604 (at node 2)
Injected packet length average = 1
Accepted packet length average = 1
Total in-flight flits = 6 (6 measured)
latency change    = 0.00465859
throughput change = 0.0180798
Draining all recorded packets ...
Draining remaining packets ...
Time taken is 4048 cycles
Class 0:
Packet latency average = 21.0417
	minimum = 7
	maximum = 39
Network latency average = 21.0417
	minimum = 7
	maximum = 39
Slowest packet = 4572
Flit latency average = 21.0417
	minimum = 7
	maximum = 39
Slowest flit = 4572
Fragmentation average = 0
	minimum = 0
	maximum = 0
Injected packet rate average = 0.00925
	minimum = 0.004 (at node 2)
	maximum = 0.02 (at node 5)
Accepted packet rate average = 0.009
	minimum = 0 (at node 0)
	maximum = 0.144 (at node 2)
Injected flit rate average = 0.00925
	minimum = 0.004 (at node 2)
	maximum = 0.02 (at node 5)
Accepted flit rate average= 0.009
	minimum = 0 (at node 0)
	maximum = 0.144 (at node 2)
Injected packet length average = 1
Accepted packet length average = 1
Total in-flight flits = 2 (0 measured)
latency change    = 1
throughput change = 1
Class 0:
Packet latency average = 20.3939
	minimum = 7
	maximum = 39
Network latency average = 20.3939
	minimum = 7
	maximum = 39
Slowest packet = 4572
Flit latency average = 20.3939
	minimum = 7
	maximum = 39
Slowest flit = 4572
Fragmentation average = 0
	minimum = 0
	maximum = 0
Injected packet rate average = 0.0104375
	minimum = 0.005 (at node 14)
	maximum = 0.02 (at node 5)
Accepted packet rate average = 0.0103125
	minimum = 0 (at node 0)
	maximum = 0.165 (at node 2)
Injected flit rate average = 0.0104375
	minimum = 0.005 (at node 14)
	maximum = 0.02 (at node 5)
Accepted flit rate average= 0.0103125
	minimum = 0 (at node 0)
	maximum = 0.165 (at node 2)
Injected packet length average = 1
Accepted packet length average = 1
Total in-flight flits = 2 (0 measured)
latency change    = 0.0317608
throughput change = 0.127273
Class 0:
Packet latency average = 20.3768
	minimum = 7
	maximum = 37
Network latency average = 20.3768
	minimum = 7
	maximum = 37
Slowest packet = 4698
Flit latency average = 20.3768
	minimum = 7
	maximum = 37
Slowest flit = 4698
Fragmentation average = 0
	minimum = 0
	maximum = 0
Injected packet rate average = 0.00875
	minimum = 0.002 (at node 0)
	maximum = 0.016 (at node 12)
Accepted packet rate average = 0.008625
	minimum = 0 (at node 0)
	maximum = 0.138 (at node 2)
Injected flit rate average = 0.00875
	minimum = 0.002 (at node 0)
	maximum = 0.016 (at node 12)
Accepted flit rate average= 0.008625
	minimum = 0 (at node 0)
	maximum = 0.138 (at node 2)
Injected packet length average = 1
Accepted packet length average = 1
Total in-flight flits = 3 (0 measured)
latency change    = 0.000840553
throughput change = 0.195652
Warmed up ...Time used is 1500 cycles
Class 0:
Packet latency average = 19.2029
	minimum = 7
	maximum = 33
Network latency average = 19.2029
	minimum = 7
	maximum = 33
Slowest packet = 4816
Flit latency average = 19.25
	minimum = 7
	maximum = 33
Slowest flit = 4816
Fragmentation average = 0
	minimum = 0
	maximum = 0
Injected packet rate average = 0.009125
	minimum = 0.002 (at node 3)
	maximum = 0.016 (at node 0)
Accepted packet rate average = 0.009
	minimum = 0 (at node 0)
	maximum = 0.144 (at node 2)
Injected flit rate average = 0.009125
	minimum = 0.002 (at node 3)
	maximum = 0.016 (at node 0)
Accepted flit rate average= 0.009
	minimum = 0 (at node 0)
	maximum = 0.144 (at node 2)
Injected packet length average = 1
Accepted packet length average = 1
Total in-flight flits = 4 (4 measured)
latency change    = 0.0611321
throughput change = 0.0416667
Class 0:
Packet latency average = 19.8302
	minimum = 7
	maximum = 33
Network latency average = 19.8302
	minimum = 7
	maximum = 33
Slowest packet = 4816
Flit latency average = 19.8395
	minimum = 7
	maximum = 33
Slowest flit = 4816
Fragmentation average = 0
	minimum = 0
	maximum = 0
Injected packet rate average = 0.010125
	minimum = 0.004 (at node 9)
	maximum = 0.018 (at node 0)
Accepted packet rate average = 0.010125
	minimum = 0 (at node 0)
	maximum = 0.162 (at node 2)
Injected flit rate average = 0.010125
	minimum = 0.004 (at node 9)
	maximum = 0.018 (at node 0)
Accepted flit rate average= 0.010125
	minimum = 0 (at node 0)
	maximum = 0.162 (at node 2)
Injected packet length average = 1
Accepted packet length average = 1
Total in-flight flits = 3 (3 measured)
latency change    = 0.0316331
throughput change = 0.111111
Class 0:
Packet latency average = 19.8517
	minimum = 7
	maximum = 33
Network latency average = 19.8517
	minimum = 7
	maximum = 33
Slowest packet = 4816
Flit latency average = 19.8577
	minimum = 7
	maximum = 33
Slowest flit = 4816
Fragmentation average = 0
	minimum = 0
	maximum = 0
Injected packet rate average = 0.01
	minimum = 0.006 (at node 3)
	maximum = 0.014 (at node 10)
Accepted packet rate average = 0.00995833
	minimum = 0 (at node 0)
	maximum = 0.159333 (at node 2)
Injected flit rate average = 0.01
	minimum = 0.006 (at node 3)
	maximum = 0.014 (at node 10)
Accepted flit rate average= 0.00995833
	minimum = 0 (at node 0)
	maximum = 0.159333 (at node 2)
Injected packet length average = 1
Accepted packet length average = 1
Total in-flight flits = 4 (4 measured)
latency change    = 0.00108335
throughput change = 0.0167364
Class 0:
Packet latency average = 19.9627
	minimum = 7
	maximum = 33
Network latency average = 19.9627
	minimum = 7
	maximum = 33
Slowest packet = 4816
Flit latency average = 19.9662
	minimum = 7
	maximum = 33
Slowest flit = 4816
Fragmentation average = 0
	minimum = 0
	maximum = 0
Injected packet rate average = 0.0101563
	minimum = 0.0075 (at node 6)
	maximum = 0.014 (at node 15)
Accepted packet rate average = 0.0101563
	minimum = 0 (at node 0)
	maximum = 0.1625 (at node 2)
Injected flit rate average = 0.0101563
	minimum = 0.0075 (at node 6)
	maximum = 0.014 (at node 15)
Accepted flit rate average= 0.0101563
	minimum = 0 (at node 0)
	maximum = 0.1625 (at node 2)
Injected packet length average = 1
Accepted packet length average = 1
Total in-flight flits = 3 (3 measured)
latency change    = 0.00556226
throughput change = 0.0194872
Class 0:
Packet latency average = 19.8675
	minimum = 7
	maximum = 33
Network latency average = 19.8675
	minimum = 7
	maximum = 33
Slowest packet = 4816
Flit latency average = 19.871
	minimum = 7
	maximum = 33
Slowest flit = 4816
Fragmentation average = 0
	minimum = 0
	maximum = 0
Injected packet rate average = 0.01005
	minimum = 0.0076 (at node 7)
	maximum = 0.0136 (at node 15)
Accepted packet rate average = 0.010075
	minimum = 0 (at node 0)
	maximum = 0.1612 (at node 2)
Injected flit rate average = 0.01005
	minimum = 0.0076 (at node 7)
	maximum = 0.0136 (at node 15)
Accepted flit rate average= 0.010075
	minimum = 0 (at node 0)
	maximum = 0.1612 (at node 2)
Injected packet length average = 1
Accepted packet length average = 1
Total in-flight flits = 2 (2 measured)
latency change    = 0.0047934
throughput change = 0.00806452
Draining all recorded packets ...
Draining remaining packets ...
Time taken is 4037 cycles
Class 0:
Packet latency average = 19.9571
	minimum = 7
	maximum = 32
Network latency average = 19.9571
	minimum = 7
	maximum = 32
Slowest packet = 5183
Flit latency average = 19.9571
	minimum = 7
	maximum = 32
Slowest flit = 5183
Fragmentation average = 0
	minimum = 0
	maximum = 0
Injected packet rate average = 0.00925
	minimum = 0.004 (at node 5)
	maximum = 0.016 (at node 3)
Accepted packet rate average = 0.00875
	minimum = 0 (at node 0)
	maximum = 0.14 (at node 2)
Injected flit rate average = 0.00925
	minimum = 0.004 (at node 5)
	maximum = 0.016 (at node 3)
Accepted flit rate average= 0.00875
	minimum = 0 (at node 0)
	maximum = 0.14 (at node 2)
Injected packet length average = 1
Accepted packet length average = 1
Total in-flight flits = 4 (0 measured)
latency change    = 1
throughput change = 1
Class 0:
Packet latency average = 20.5128
	minimum = 7
	maximum = 33
Network latency average = 20.5128
	minimum = 7
	maximum = 33
Slowest packet = 5288
Flit latency average = 20.5128
	minimum = 7
	maximum = 33
Slowest flit = 5288
Fragmentation average = 0
	minimum = 0
	maximum = 0
Injected packet rate average = 0.009875
	minimum = 0.005 (at node 5)
	maximum = 0.017 (at node 12)
Accepted packet rate average = 0.00975
	minimum = 0 (at node 0)
	maximum = 0.156 (at node 2)
Injected flit rate average = 0.009875
	minimum = 0.005 (at node 5)
	maximum = 0.017 (at node 12)
Accepted flit rate average= 0.00975
	minimum = 0 (at node 0)
	maximum = 0.156 (at node 2)
Injected packet length average = 1
Accepted packet length average = 1
Total in-flight flits = 2 (0 measured)
latency change    = 0.0270893
throughput change = 0.102564
Class 0:
Packet latency average = 20.8533
	minimum = 7
	maximum = 33
Network latency average = 20.8533
	minimum = 7
	maximum = 33
Slowest packet = 5378
Flit latency average = 20.8533
	minimum = 7
	maximum = 33
Slowest flit = 5378
Fragmentation average = 0
	minimum = 0
	maximum = 0
Injected packet rate average = 0.009375
	minimum = 0.004 (at node 5)
	maximum = 0.018 (at node 8)
Accepted packet rate average = 0.009375
	minimum = 0 (at node 0)
	maximum = 0.15 (at node 2)
Injected flit rate average = 0.009375
	minimum = 0.004 (at node 5)
	maximum = 0.018 (at node 8)
Accepted flit rate average= 0.009375
	minimum = 0 (at node 0)
	maximum = 0.15 (at node 2)
Injected packet length average = 1
Accepted packet length average = 1
Total in-flight flits = 2 (0 measured)
latency change    = 0.0163289
throughput change = 0.04
Warmed up ...Time used is 1500 cycles
Class 0:
Packet latency average = 19.7419
	minimum = 7
	maximum = 32
Network latency average = 19.7419
	minimum = 7
	maximum = 32
Slowest packet = 5428
Flit latency average = 19.8125
	minimum = 7
	maximum = 32
Slowest flit = 5428
Fragmentation average = 0
	minimum = 0
	maximum = 0
Injected packet rate average = 0.008125
	minimum = 0.004 (at node 0)
	maximum = 0.014 (at node 9)
Accepted packet rate average = 0.008
	minimum = 0 (at node 0)
	maximum = 0.128 (at node 2)
Injected flit rate average = 0.008125
	minimum = 0.004 (at node 0)
	maximum = 0.014 (at node 9)
Accepted flit rate average= 0.008
	minimum = 0 (at node 0)
	maximum = 0.128 (at node 2)
Injected packet length average = 1
Accepted packet length average = 1
Total in-flight flits = 3 (3 measured)
latency change    = 0.0562963
throughput change = 0.171875
Class 0:
Packet latency average = 20.6148
	minimum = 7
	maximum = 34
Network latency average = 20.6148
	minimum = 7
	maximum = 34
Slowest packet = 5506
Flit latency average = 20.635
	minimum = 7
	maximum = 34
Slowest flit = 5506
Fragmentation average = 0
	minimum = 0
	maximum = 0
Injected packet rate average = 0.00875
	minimum = 0.004 (at node 1)
	maximum = 0.015 (at node 13)
Accepted packet rate average = 0.0085625
	minimum = 0 (at node 0)
	maximum = 0.137 (at node 2)
Injected flit rate average = 0.00875
	minimum = 0.004 (at node 1)
	maximum = 0.015 (at node 13)
Accepted flit rate average= 0.0085625
	minimum = 0 (at node 0)
	maximum = 0.137 (at node 2)
Injected packet length average = 1
Accepted packet length average = 1
Total in-flight flits = 5 (5 measured)
latency change    = 0.0423423
throughput change = 0.0656934
Class 0:
Packet latency average = 20.6986
	minimum = 7
	maximum = 34
Network latency average = 20.6986
	minimum = 7
	maximum = 34
Slowest packet = 5506
Flit latency average = 20.7109
	minimum = 7
	maximum = 34
Slowest flit = 5506
Fragmentation average = 0
	minimum = 0
	maximum = 0
Injected packet rate average = 0.00879167
	minimum = 0.004 (at node 0)
	maximum = 0.0133333 (at node 13)
Accepted packet rate average = 0.00879167
	minimum = 0 (at node 0)
	maximum = 0.140667 (at node 2)
Injected flit rate average = 0.00879167
	minimum = 0.004 (at node 0)
	maximum = 0.0133333 (at node 13)
Accepted flit rate average= 0.00879167
	minimum = 0 (at node 0)
	maximum = 0.140667 (at node 2)
Injected packet length average = 1
Accepted packet length average = 1
Total in-flight flits = 2 (2 measured)
latency change    = 0.00404616
throughput change = 0.0260664
Class 0:
Packet latency average = 20.0311
	minimum = 7
	maximum = 34
Network latency average = 20.0311
	minimum = 7
	maximum = 34
Slowest packet = 5506
Flit latency average = 20.0447
	minimum = 7
	maximum = 34
Slowest flit = 5506
Fragmentation average = 0
	minimum = 0
	maximum = 0
Injected packet rate average = 0.00909375
	minimum = 0.005 (at node 0)
	maximum = 0.0135 (at node 6)
Accepted packet rate average = 0.00909375
	minimum = 0 (at node 0)
	maximum = 0.1455 (at node 2)
Injected flit rate average = 0.00909375
	minimum = 0.005 (at node 0)
	maximum = 0.0135 (at node 6)
Accepted flit rate average= 0.00909375
	minimum = 0 (at node 0)
	maximum = 0.1455 (at node 2)
Injected packet length average = 1
Accepted packet length average = 1
Total in-flight flits = 2 (2 measured)
latency change    = 0.0333193
throughput change = 0.0332188
Class 0:
Packet latency average = 19.8852
	minimum = 7
	maximum = 34
Network latency average = 19.8852
	minimum = 7
	maximum = 34
Slowest packet = 5506
Flit latency average = 19.8969
	minimum = 7
	maximum = 34
Slowest flit = 5506
Fragmentation average = 0
	minimum = 0
	maximum = 0
Injected packet rate average = 0.009025
	minimum = 0.0052 (at node 11)
	maximum = 0.0128 (at node 13)
Accepted packet rate average = 0.008975
	minimum = 0 (at node 0)
	maximum = 0.1436 (at node 2)
Injected flit rate average = 0.009025
	minimum = 0.0052 (at node 11)
	maximum = 0.0128 (at node 13)
Accepted flit rate average= 0.008975
	minimum = 0 (at node 0)
	maximum = 0.1436 (at node 2)
Injected packet length average = 1
Accepted packet length average = 1
Total in-flight flits = 4 (4 measured)
latency change    = 0.00734155
throughput change = 0.0132312
Draining all recorded packets ...
Draining remaining packets ...
Time taken is 4043 cycles
Class 0:
Packet latency average = 19.0595
	minimum = 7
	maximum = 34
Network latency average = 19.0595
	minimum = 7
	maximum = 34
Slowest packet = 5776
Flit latency average = 19.0595
	minimum = 7
	maximum = 34
Slowest flit = 5776
Fragmentation average = 0
	minimum = 0
	maximum = 0
Injected packet rate average = 0.010625
	minimum = 0.004 (at node 8)
	maximum = 0.02 (at node 4)
Accepted packet rate average = 0.0105
	minimum = 0 (at node 0)
	maximum = 0.168 (at node 2)
Injected flit rate average = 0.010625
	minimum = 0.004 (at node 8)
	maximum = 0.02 (at node 4)
Accepted flit rate average= 0.0105
	minimum = 0 (at node 0)
	maximum = 0.168 (at node 2)
Injected packet length average = 1
Accepted packet length average = 1
Total in-flight flits = 1 (0 measured)
latency change    = 1
throughput change = 1
Class 0:
Packet latency average = 20.0192
	minimum = 7
	maximum = 37
Network latency average = 20.0192
	minimum = 7
	maximum = 37
Slowest packet = 5907
Flit latency average = 20.0192
	minimum = 7
	maximum = 37
Slowest flit = 5907
Fragmentation average = 0
	minimum = 0
	maximum = 0
Injected packet rate average = 0.0098125
	minimum = 0.003 (at node 9)
	maximum = 0.015 (at node 12)
Accepted packet rate average = 0.00975
	minimum = 0 (at node 0)
	maximum = 0.156 (at node 2)
Injected flit rate average = 0.0098125
	minimum = 0.003 (at node 9)
	maximum = 0.015 (at node 12)
Accepted flit rate average= 0.00975
	minimum = 0 (at node 0)
	maximum = 0.156 (at node 2)
Injected packet length average = 1
Accepted packet length average = 1
Total in-flight flits = 1 (0 measured)
latency change    = 0.0479393
throughput change = 0.0769231
Class 0:
Packet latency average = 19.9259
	minimum = 7
	maximum = 32
Network latency average = 19.9259
	minimum = 7
	maximum = 32
Slowest packet = 5935
Flit latency average = 19.9259
	minimum = 7
	maximum = 32
Slowest flit = 5935
Fragmentation average = 0
	minimum = 0
	maximum = 0
Injected packet rate average = 0.01025
	minimum = 0.002 (at node 7)
	maximum = 0.016 (at node 0)
Accepted packet rate average = 0.010125
	minimum = 0 (at node 0)
	maximum = 0.162 (at node 2)
Injected flit rate average = 0.01025
	minimum = 0.002 (at node 7)
	maximum = 0.016 (at node 0)
Accepted flit rate average= 0.010125
	minimum = 0 (at node 0)
	maximum = 0.162 (at node 2)
Injected packet length average = 1
Accepted packet length average = 1
Total in-flight flits = 2 (0 measured)
latency change    = 0.00468259
throughput change = 0.037037
Warmed up ...Time used is 1500 cycles
Class 0:
Packet latency average = 19.4479
	minimum = 7
	maximum = 32
Network latency average = 19.4479
	minimum = 7
	maximum = 32
Slowest packet = 6015
Flit latency average = 19.5
	minimum = 7
	maximum = 32
Slowest flit = 6015
Fragmentation average = 0
	minimum = 0
	maximum = 0
Injected packet rate average = 0.0125
	minimum = 0.004 (at node 0)
	maximum = 0.02 (at node 11)
Accepted packet rate average = 0.01225
	minimum = 0 (at node 0)
	maximum = 0.196 (at node 2)
Injected flit rate average = 0.0125
	minimum = 0.004 (at node 0)
	maximum = 0.02 (at node 11)
Accepted flit rate average= 0.01225
	minimum = 0 (at node 0)
	maximum = 0.196 (at node 2)
Injected packet length average = 1
Accepted packet length average = 1
Total in-flight flits = 4 (4 measured)
latency change    = 0.0245789
throughput change = 0.173469
Class 0:
Packet latency average = 20.2139
	minimum = 7
	maximum = 33
Network latency average = 20.2139
	minimum = 7
	maximum = 33
Slowest packet = 6116
Flit latency average = 20.2343
	minimum = 7
	maximum = 33
Slowest flit = 6116
Fragmentation average = 0
	minimum = 0
	maximum = 0
Injected packet rate average = 0.011
	minimum = 0.005 (at node 1)
	maximum = 0.016 (at node 6)
Accepted packet rate average = 0.0109375
	minimum = 0 (at node 0)
	maximum = 0.175 (at node 2)
Injected flit rate average = 0.011
	minimum = 0.005 (at node 1)
	maximum = 0.016 (at node 6)
Accepted flit rate average= 0.0109375
	minimum = 0 (at node 0)
	maximum = 0.175 (at node 2)
Injected packet length average = 1
Accepted packet length average = 1
Total in-flight flits = 3 (3 measured)
latency change    = 0.0378926
throughput change = 0.12
Class 0:
Packet latency average = 19.6349
	minimum = 7
	maximum = 33
Network latency average = 19.6349
	minimum = 7
	maximum = 33
Slowest packet = 6116
Flit latency average = 19.6543
	minimum = 7
	maximum = 33
Slowest flit = 6116
Fragmentation average = 0
	minimum = 0
	maximum = 0
Injected packet rate average = 0.0102917
	minimum = 0.00666667 (at node 13)
	maximum = 0.016 (at node 6)
Accepted packet rate average = 0.010125
	minimum = 0 (at node 0)
	maximum = 0.162 (at node 2)
Injected flit rate average = 0.0102917
	minimum = 0.00666667 (at node 13)
	maximum = 0.016 (at node 6)
Accepted flit rate average= 0.010125
	minimum = 0 (at node 0)
	maximum = 0.162 (at node 2)
Injected packet length average = 1
Accepted packet length average = 1
Total in-flight flits = 6 (6 measured)
latency change    = 0.0294893
throughput change = 0.0802469
Class 0:
Packet latency average = 19.6019
	minimum = 7
	maximum = 33
Network latency average = 19.6019
	minimum = 7
	maximum = 33
Slowest packet = 6116
Flit latency average = 19.6166
	minimum = 7
	maximum = 33
Slowest flit = 6116
Fragmentation average = 0
	minimum = 0
	maximum = 0
Injected packet rate average = 0.01025
	minimum = 0.007 (at node 13)
	maximum = 0.014 (at node 11)
Accepted packet rate average = 0.0101875
	minimum = 0 (at node 0)
	maximum = 0.163 (at node 2)
Injected flit rate average = 0.01025
	minimum = 0.007 (at node 13)
	maximum = 0.014 (at node 11)
Accepted flit rate average= 0.0101875
	minimum = 0 (at node 0)
	maximum = 0.163 (at node 2)
Injected packet length average = 1
Accepted packet length average = 1
Total in-flight flits = 4 (4 measured)
latency change    = 0.00168366
throughput change = 0.00613497
Class 0:
Packet latency average = 19.432
	minimum = 7
	maximum = 34
Network latency average = 19.432
	minimum = 7
	maximum = 34
Slowest packet = 6359
Flit latency average = 19.4444
	minimum = 7
	maximum = 34
Slowest flit = 6359
Fragmentation average = 0
	minimum = 0
	maximum = 0
Injected packet rate average = 0.010425
	minimum = 0.008 (at node 13)
	maximum = 0.0132 (at node 2)
Accepted packet rate average = 0.01035
	minimum = 0 (at node 0)
	maximum = 0.1656 (at node 2)
Injected flit rate average = 0.010425
	minimum = 0.008 (at node 13)
	maximum = 0.0132 (at node 2)
Accepted flit rate average= 0.01035
	minimum = 0 (at node 0)
	maximum = 0.1656 (at node 2)
Injected packet length average = 1
Accepted packet length average = 1
Total in-flight flits = 5 (5 measured)
latency change    = 0.00873882
throughput change = 0.0157005
Class 0:
Packet latency average = 19.4248
	minimum = 7
	maximum = 34
Network latency average = 19.4248
	minimum = 7
	maximum = 34
Slowest packet = 6359
Flit latency average = 19.4352
	minimum = 7
	maximum = 34
Slowest flit = 6359
Fragmentation average = 0
	minimum = 0
	maximum = 0
Injected packet rate average = 0.010375
	minimum = 0.00766667 (at node 5)
	maximum = 0.013 (at node 7)
Accepted packet rate average = 0.0102917
	minimum = 0 (at node 0)
	maximum = 0.164667 (at node 2)
Injected flit rate average = 0.010375
	minimum = 0.00766667 (at node 5)
	maximum = 0.013 (at node 7)
Accepted flit rate average= 0.0102917
	minimum = 0 (at node 0)
	maximum = 0.164667 (at node 2)
Injected packet length average = 1
Accepted packet length average = 1
Total in-flight flits = 6 (6 measured)
latency change    = 0.000372827
throughput change = 0.00566802
Draining all recorded packets ...
Draining remaining packets ...
Time taken is 4528 cycles
Class 0:
Packet latency average = 19.3636
	minimum = 7
	maximum = 32
Network latency average = 19.3636
	minimum = 7
	maximum = 32
Slowest packet = 6509
Flit latency average = 19.3636
	minimum = 7
	maximum = 32
Slowest flit = 6509
Fragmentation average = 0
	minimum = 0
	maximum = 0
Injected packet rate average = 0.011375
	minimum = 0.002 (at node 6)
	maximum = 0.02 (at node 2)
Accepted packet rate average = 0.011
	minimum = 0 (at node 0)
	maximum = 0.176 (at node 2)
Injected flit rate average = 0.011375
	minimum = 0.002 (at node 6)
	maximum = 0.02 (at node 2)
Accepted flit rate average= 0.011
	minimum = 0 (at node 0)
	maximum = 0.176 (at node 2)
Injected packet length average = 1
Accepted packet length average = 1
Total in-flight flits = 3 (0 measured)
latency change    = 1
throughput change = 1
Class 0:
Packet latency average = 19.4913
	minimum = 7
	maximum = 32
Network latency average = 19.4913
	minimum = 7
	maximum = 32
Slowest packet = 6509
Flit latency average = 19.4913
	minimum = 7
	maximum = 32
Slowest flit = 6509
Fragmentation average = 0
	minimum = 0
	maximum = 0
Injected packet rate average = 0.010875
	minimum = 0.005 (at node 6)
	maximum = 0.016 (at node 2)
Accepted packet rate average = 0.0108125
	minimum = 0 (at node 0)
	maximum = 0.173 (at node 2)
Injected flit rate average = 0.010875
	minimum = 0.005 (at node 6)
	maximum = 0.016 (at node 2)
Accepted flit rate average= 0.0108125
	minimum = 0 (at node 0)
	maximum = 0.173 (at node 2)
Injected packet length average = 1
Accepted packet length average = 1
Total in-flight flits = 1 (0 measured)
latency change    = 0.00655128
throughput change = 0.017341
Class 0:
Packet latency average = 19.7746
	minimum = 7
	maximum = 33
Network latency average = 19.7746
	minimum = 7
	maximum = 33
Slowest packet = 6706
Flit latency average = 19.7746
	minimum = 7
	maximum = 33
Slowest flit = 6706
Fragmentation average = 0
	minimum = 0
	maximum = 0
Injected packet rate average = 0.009375
	minimum = 0.004 (at node 0)
	maximum = 0.014 (at node 12)
Accepted packet rate average = 0.008875
	minimum = 0 (at node 0)
	maximum = 0.142 (at node 2)
Injected flit rate average = 0.009375
	minimum = 0.004 (at node 0)
	maximum = 0.014 (at node 12)
Accepted flit rate average= 0.008875
	minimum = 0 (at node 0)
	maximum = 0.142 (at node 2)
Injected packet length average = 1
Accepted packet length average = 1
Total in-flight flits = 5 (0 measured)
latency change    = 0.0143274
throughput change = 0.21831
Warmed up ...Time used is 1500 cycles
Class 0:
Packet latency average = 19.6494
	minimum = 7
	maximum = 32
Network latency average = 19.6494
	minimum = 7
	maximum = 32
Slowest packet = 6787
Flit latency average = 19.9268
	minimum = 7
	maximum = 32
Slowest flit = 6787
Fragmentation average = 0
	minimum = 0
	maximum = 0
Injected packet rate average = 0.0105
	minimum = 0.002 (at node 13)
	maximum = 0.02 (at node 4)
Accepted packet rate average = 0.01025
	minimum = 0 (at node 0)
	maximum = 0.164 (at node 2)
Injected flit rate average = 0.0105
	minimum = 0.002 (at node 13)
	maximum = 0.02 (at node 4)
Accepted flit rate average= 0.01025
	minimum = 0 (at node 0)
	maximum = 0.164 (at node 2)
Injected packet length average = 1
Accepted packet length average = 1
Total in-flight flits = 7 (7 measured)
latency change    = 0.00637666
throughput change = 0.134146
Class 0:
Packet latency average = 19.3618
	minimum = 7
	maximum = 32
Network latency average = 19.3618
	minimum = 7
	maximum = 32
Slowest packet = 6787
Flit latency average = 19.5159
	minimum = 7
	maximum = 32
Slowest flit = 6787
Fragmentation average = 0
	minimum = 0
	maximum = 0
Injected packet rate average = 0.0096875
	minimum = 0.005 (at node 13)
	maximum = 0.014 (at node 4)
Accepted packet rate average = 0.0098125
	minimum = 0 (at node 0)
	maximum = 0.157 (at node 2)
Injected flit rate average = 0.0096875
	minimum = 0.005 (at node 13)
	maximum = 0.014 (at node 4)
Accepted flit rate average= 0.0098125
	minimum = 0 (at node 0)
	maximum = 0.157 (at node 2)
Injected packet length average = 1
Accepted packet length average = 1
Total in-flight flits = 3 (3 measured)
latency change    = 0.0148492
throughput change = 0.044586
Class 0:
Packet latency average = 19.6862
	minimum = 7
	maximum = 33
Network latency average = 19.6862
	minimum = 7
	maximum = 33
Slowest packet = 6936
Flit latency average = 19.7787
	minimum = 7
	maximum = 33
Slowest flit = 6936
Fragmentation average = 0
	minimum = 0
	maximum = 0
Injected packet rate average = 0.0100833
	minimum = 0.00666667 (at node 2)
	maximum = 0.0146667 (at node 4)
Accepted packet rate average = 0.0101667
	minimum = 0 (at node 0)
	maximum = 0.162667 (at node 2)
Injected flit rate average = 0.0100833
	minimum = 0.00666667 (at node 2)
	maximum = 0.0146667 (at node 4)
Accepted flit rate average= 0.0101667
	minimum = 0 (at node 0)
	maximum = 0.162667 (at node 2)
Injected packet length average = 1
Accepted packet length average = 1
Total in-flight flits = 3 (3 measured)
latency change    = 0.016476
throughput change = 0.0348361
Class 0:
Packet latency average = 19.7089
	minimum = 7
	maximum = 33
Network latency average = 19.7089
	minimum = 7
	maximum = 33
Slowest packet = 6936
Flit latency average = 19.7788
	minimum = 7
	maximum = 33
Slowest flit = 6936
Fragmentation average = 0
	minimum = 0
	maximum = 0
Injected packet rate average = 0.01
	minimum = 0.007 (at node 9)
	maximum = 0.0135 (at node 14)
Accepted packet rate average = 0.0100313
	minimum = 0 (at node 0)
	maximum = 0.1605 (at node 2)
Injected flit rate average = 0.01
	minimum = 0.007 (at node 9)
	maximum = 0.0135 (at node 14)
Accepted flit rate average= 0.0100313
	minimum = 0 (at node 0)
	maximum = 0.1605 (at node 2)
Injected packet length average = 1
Accepted packet length average = 1
Total in-flight flits = 4 (4 measured)
latency change    = 0.00115016
throughput change = 0.0134995
Draining all recorded packets ...
Draining remaining packets ...
Time taken is 3560 cycles
Class 0:
Packet latency average = 20.3205
	minimum = 7
	maximum = 33
Network latency average = 20.3205
	minimum = 7
	maximum = 33
Slowest packet = 7114
Flit latency average = 20.3205
	minimum = 7
	maximum = 33
Slowest flit = 7114
Fragmentation average = 0
	minimum = 0
	maximum = 0
Injected packet rate average = 0.00975
	minimum = 0.002 (at node 12)
	maximum = 0.018 (at node 14)
Accepted packet rate average = 0.00975
	minimum = 0 (at node 0)
	maximum = 0.156 (at node 2)
Injected flit rate average = 0.00975
	minimum = 0.002 (at node 12)
	maximum = 0.018 (at node 14)
Accepted flit rate average= 0.00975
	minimum = 0 (at node 0)
	maximum = 0.156 (at node 2)
Injected packet length average = 1
Accepted packet length average = 1
Total in-flight flits = 0 (0 measured)
latency change    = 1
throughput change = 1
Class 0:
Packet latency average = 20.3491
	minimum = 7
	maximum = 46
Network latency average = 20.3491
	minimum = 7
	maximum = 46
Slowest packet = 7232
Flit latency average = 20.3491
	minimum = 7
	maximum = 46
Slowest flit = 7232
Fragmentation average = 0
	minimum = 0
	maximum = 0
Injected packet rate average = 0.01075
	minimum = 0.003 (at node 12)
	maximum = 0.015 (at node 9)
Accepted packet rate average = 0.0105625
	minimum = 0 (at node 0)
	maximum = 0.169 (at node 2)
Injected flit rate average = 0.01075
	minimum = 0.003 (at node 12)
	maximum = 0.015 (at node 9)
Accepted flit rate average= 0.0105625
	minimum = 0 (at node 0)
	maximum = 0.169 (at node 2)
Injected packet length average = 1
Accepted packet length average = 1
Total in-flight flits = 3 (0 measured)
latency change    = 0.00140545
throughput change = 0.0769231
Class 0:
Packet latency average = 18.4615
	minimum = 7
	maximum = 37
Network latency average = 18.4615
	minimum = 7
	maximum = 37
Slowest packet = 7257
Flit latency average = 18.4615
	minimum = 7
	maximum = 37
Slowest flit = 7257
Fragmentation average = 0
	minimum = 0
	maximum = 0
Injected packet rate average = 0.012875
	minimum = 0.004 (at node 12)
	maximum = 0.026 (at node 15)
Accepted packet rate average = 0.013
	minimum = 0 (at node 0)
	maximum = 0.208 (at node 2)
Injected flit rate average = 0.012875
	minimum = 0.004 (at node 12)
	maximum = 0.026 (at node 15)
Accepted flit rate average= 0.013
	minimum = 0 (at node 0)
	maximum = 0.208 (at node 2)
Injected packet length average = 1
Accepted packet length average = 1
Total in-flight flits = 2 (0 measured)
latency change    = 0.102244
throughput change = 0.1875
Warmed up ...Time used is 1500 cycles
Class 0:
Packet latency average = 20.1467
	minimum = 8
	maximum = 32
Network latency average = 20.1467
	minimum = 8
	maximum = 32
Slowest packet = 7375
Flit latency average = 20.1299
	minimum = 8
	maximum = 32
Slowest flit = 7375
Fragmentation average = 0
	minimum = 0
	maximum = 0
Injected packet rate average = 0.009625
	minimum = 0.002 (at node 8)
	maximum = 0.018 (at node 7)
Accepted packet rate average = 0.009625
	minimum = 0 (at node 0)
	maximum = 0.154 (at node 2)
Injected flit rate average = 0.009625
	minimum = 0.002 (at node 8)
	maximum = 0.018 (at node 7)
Accepted flit rate average= 0.009625
	minimum = 0 (at node 0)
	maximum = 0.154 (at node 2)
Injected packet length average = 1
Accepted packet length average = 1
Total in-flight flits = 2 (2 measured)
latency change    = 0.083643
throughput change = 0.350649
Class 0:
Packet latency average = 20.1189
	minimum = 7
	maximum = 35
Network latency average = 20.1189
	minimum = 7
	maximum = 35
Slowest packet = 7467
Flit latency average = 20.1103
	minimum = 7
	maximum = 35
Slowest flit = 7467
Fragmentation average = 0
	minimum = 0
	maximum = 0
Injected packet rate average = 0.00925
	minimum = 0.005 (at node 0)
	maximum = 0.013 (at node 7)
Accepted packet rate average = 0.0090625
	minimum = 0 (at node 0)
	maximum = 0.145 (at node 2)
Injected flit rate average = 0.00925
	minimum = 0.005 (at node 0)
	maximum = 0.013 (at node 7)
Accepted flit rate average= 0.0090625
	minimum = 0 (at node 0)
	maximum = 0.145 (at node 2)
Injected packet length average = 1
[...]
	maximum = 0.148 (at node 2)
Injected packet length average = 1
Accepted packet length average = 1
Total in-flight flits = 3 (3 measured)
latency change    = 0.0603423
throughput change = 0.0810811
Class 0:
Packet latency average = 19.943
	minimum = 7
	maximum = 43
Network latency average = 19.943
	minimum = 7
	maximum = 43
Slowest packet = 31268
Flit latency average = 19.9937
	minimum = 7
	maximum = 43
Slowest flit = 31268
Fragmentation average = 0
	minimum = 0
	maximum = 0
Injected packet rate average = 0.01
	minimum = 0.005 (at node 15)
	maximum = 0.014 (at node 14)
Accepted packet rate average = 0.0099375
	minimum = 0 (at node 0)
	maximum = 0.159 (at node 2)
Injected flit rate average = 0.01
	minimum = 0.005 (at node 15)
	maximum = 0.014 (at node 14)
Accepted flit rate average= 0.0099375
	minimum = 0 (at node 0)
	maximum = 0.159 (at node 2)
Injected packet length average = 1
Accepted packet length average = 1
Total in-flight flits = 2 (2 measured)
latency change    = 0.0385744
throughput change = 0.0691824
Class 0:
Packet latency average = 20.2101
	minimum = 7
	maximum = 43
Network latency average = 20.2101
	minimum = 7
	maximum = 43
Slowest packet = 31268
Flit latency average = 20.2403
	minimum = 7
	maximum = 43
Slowest flit = 31268
Fragmentation average = 0
	minimum = 0
	maximum = 0
Injected packet rate average = 0.01075
	minimum = 0.00666667 (at node 2)
	maximum = 0.016 (at node 10)
Accepted packet rate average = 0.01075
	minimum = 0 (at node 0)
	maximum = 0.172 (at node 2)
Injected flit rate average = 0.01075
	minimum = 0.00666667 (at node 2)
	maximum = 0.016 (at node 10)
Accepted flit rate average= 0.01075
	minimum = 0 (at node 0)
	maximum = 0.172 (at node 2)
Injected packet length average = 1
Accepted packet length average = 1
Total in-flight flits = 1 (1 measured)
latency change    = 0.0132151
throughput change = 0.0755814
Class 0:
Packet latency average = 19.6332
	minimum = 7
	maximum = 43
Network latency average = 19.6332
	minimum = 7
	maximum = 43
Slowest packet = 31268
Flit latency average = 19.6594
	minimum = 7
	maximum = 43
Slowest flit = 31268
Fragmentation average = 0
	minimum = 0
	maximum = 0
Injected packet rate average = 0.0100938
	minimum = 0.0065 (at node 15)
	maximum = 0.0155 (at node 10)
Accepted packet rate average = 0.01
	minimum = 0 (at node 0)
	maximum = 0.16 (at node 2)
Injected flit rate average = 0.0100938
	minimum = 0.0065 (at node 15)
	maximum = 0.0155 (at node 10)
Accepted flit rate average= 0.01
	minimum = 0 (at node 0)
	maximum = 0.16 (at node 2)
Injected packet length average = 1
Accepted packet length average = 1
Total in-flight flits = 4 (4 measured)
latency change    = 0.0293832
throughput change = 0.075
Class 0:
Packet latency average = 19.2687
	minimum = 7
	maximum = 43
Network latency average = 19.2687
	minimum = 7
	maximum = 43
Slowest packet = 31268
Flit latency average = 19.2903
	minimum = 7
	maximum = 43
Slowest flit = 31268
Fragmentation average = 0
	minimum = 0
	maximum = 0
Injected packet rate average = 0.010125
	minimum = 0.0076 (at node 12)
	maximum = 0.0148 (at node 10)
Accepted packet rate average = 0.010075
	minimum = 0 (at node 0)
	maximum = 0.1612 (at node 2)
Injected flit rate average = 0.010125
	minimum = 0.0076 (at node 12)
	maximum = 0.0148 (at node 10)
Accepted flit rate average= 0.010075
	minimum = 0 (at node 0)
	maximum = 0.1612 (at node 2)
Injected packet length average = 1
Accepted packet length average = 1
Total in-flight flits = 3 (3 measured)
latency change    = 0.0189205
throughput change = 0.00744417
Class 0:
Packet latency average = 19.4736
	minimum = 7
	maximum = 43
Network latency average = 19.4736
	minimum = 7
	maximum = 43
Slowest packet = 31268
Flit latency average = 19.4909
	minimum = 7
	maximum = 43
Slowest flit = 31268
Fragmentation average = 0
	minimum = 0
	maximum = 0
Injected packet rate average = 0.0103125
	minimum = 0.008 (at node 12)
	maximum = 0.0146667 (at node 10)
Accepted packet rate average = 0.0102708
	minimum = 0 (at node 0)
	maximum = 0.164333 (at node 2)
Injected flit rate average = 0.0103125
	minimum = 0.008 (at node 12)
	maximum = 0.0146667 (at node 10)
Accepted flit rate average= 0.0102708
	minimum = 0 (at node 0)
	maximum = 0.164333 (at node 2)
Injected packet length average = 1
Accepted packet length average = 1
Total in-flight flits = 3 (3 measured)
latency change    = 0.010523
throughput change = 0.0190669
Class 0:
Packet latency average = 19.2706
	minimum = 7
	maximum = 43
Network latency average = 19.2706
	minimum = 7
	maximum = 43
Slowest packet = 31268
Flit latency average = 19.2862
	minimum = 7
	maximum = 43
Slowest flit = 31268
Fragmentation average = 0
	minimum = 0
	maximum = 0
Injected packet rate average = 0.0100179
	minimum = 0.00771429 (at node 12)
	maximum = 0.0137143 (at node 10)
Accepted packet rate average = 0.00998214
	minimum = 0 (at node 0)
	maximum = 0.159714 (at node 2)
Injected flit rate average = 0.0100179
	minimum = 0.00771429 (at node 12)
	maximum = 0.0137143 (at node 10)
Accepted flit rate average= 0.00998214
	minimum = 0 (at node 0)
	maximum = 0.159714 (at node 2)
Injected packet length average = 1
Accepted packet length average = 1
Total in-flight flits = 3 (3 measured)
latency change    = 0.0105325
throughput change = 0.0289207
Draining all recorded packets ...
Draining remaining packets ...
Time taken is 5026 cycles
Class 0:
Packet latency average = 18.0921
	minimum = 7
	maximum = 33
Network latency average = 18.0921
	minimum = 7
	maximum = 33
Slowest packet = 31717
Flit latency average = 18.0921
	minimum = 7
	maximum = 33
Slowest flit = 31717
Fragmentation average = 0
	minimum = 0
	maximum = 0
Injected packet rate average = 0.009875
	minimum = 0.002 (at node 15)
	maximum = 0.02 (at node 9)
Accepted packet rate average = 0.0095
	minimum = 0 (at node 0)
	maximum = 0.152 (at node 2)
Injected flit rate average = 0.009875
	minimum = 0.002 (at node 15)
	maximum = 0.02 (at node 9)
Accepted flit rate average= 0.0095
	minimum = 0 (at node 0)
	maximum = 0.152 (at node 2)
Injected packet length average = 1
Accepted packet length average = 1
Total in-flight flits = 3 (0 measured)
latency change    = 1
throughput change = 1
Class 0:
Packet latency average = 18.8133
	minimum = 7
	maximum = 34
Network latency average = 18.8133
	minimum = 7
	maximum = 34
Slowest packet = 31792
Flit latency average = 18.8133
	minimum = 7
	maximum = 34
Slowest flit = 31792
Fragmentation average = 0
	minimum = 0
	maximum = 0
Injected packet rate average = 0.00975
	minimum = 0.004 (at node 15)
	maximum = 0.015 (at node 6)
Accepted packet rate average = 0.009375
	minimum = 0 (at node 0)
	maximum = 0.15 (at node 2)
Injected flit rate average = 0.00975
	minimum = 0.004 (at node 15)
	maximum = 0.015 (at node 6)
Accepted flit rate average= 0.009375
	minimum = 0 (at node 0)
	maximum = 0.15 (at node 2)
Injected packet length average = 1
Accepted packet length average = 1
Total in-flight flits = 6 (0 measured)
latency change    = 0.038336
throughput change = 0.0133333
Class 0:
Packet latency average = 19.3026
	minimum = 7
	maximum = 35
Network latency average = 19.3026
	minimum = 7
	maximum = 35
Slowest packet = 31919
Flit latency average = 19.3026
	minimum = 7
	maximum = 35
Slowest flit = 31919
Fragmentation average = 0
	minimum = 0
	maximum = 0
Injected packet rate average = 0.00875
	minimum = 0.004 (at node 1)
	maximum = 0.014 (at node 3)
Accepted packet rate average = 0.0095
	minimum = 0 (at node 0)
	maximum = 0.152 (at node 2)
Injected flit rate average = 0.00875
	minimum = 0.004 (at node 1)
	maximum = 0.014 (at node 3)
Accepted flit rate average= 0.0095
	minimum = 0 (at node 0)
	maximum = 0.152 (at node 2)
Injected packet length average = 1
Accepted packet length average = 1
Total in-flight flits = 0 (0 measured)
latency change    = 0.0253488
throughput change = 0.0131579
Warmed up ...Time used is 1500 cycles
Class 0:
Packet latency average = 19.209
	minimum = 7
	maximum = 32
Network latency average = 19.209
	minimum = 7
	maximum = 32
Slowest packet = 31957
Flit latency average = 19.209
	minimum = 7
	maximum = 32
Slowest flit = 31957
Fragmentation average = 0
	minimum = 0
	maximum = 0
Injected packet rate average = 0.00875
	minimum = 0.004 (at node 3)
	maximum = 0.016 (at node 13)
Accepted packet rate average = 0.008375
	minimum = 0 (at node 0)
	maximum = 0.134 (at node 2)
Injected flit rate average = 0.00875
	minimum = 0.004 (at node 3)
	maximum = 0.016 (at node 13)
Accepted flit rate average= 0.008375
	minimum = 0 (at node 0)
	maximum = 0.134 (at node 2)
Injected packet length average = 1
Accepted packet length average = 1
Total in-flight flits = 3 (3 measured)
latency change    = 0.0048767
throughput change = 0.134328
Class 0:
Packet latency average = 19.8322
	minimum = 7
	maximum = 32
Network latency average = 19.8322
	minimum = 7
	maximum = 32
Slowest packet = 31957
Flit latency average = 19.8322
	minimum = 7
	maximum = 32
Slowest flit = 31957
Fragmentation average = 0
	minimum = 0
	maximum = 0
Injected packet rate average = 0.0091875
	minimum = 0.004 (at node 3)
	maximum = 0.013 (at node 10)
Accepted packet rate average = 0.0089375
	minimum = 0 (at node 0)
	maximum = 0.143 (at node 2)
Injected flit rate average = 0.0091875
	minimum = 0.004 (at node 3)
	maximum = 0.013 (at node 10)
Accepted flit rate average= 0.0089375
	minimum = 0 (at node 0)
	maximum = 0.143 (at node 2)
Injected packet length average = 1
Accepted packet length average = 1
Total in-flight flits = 4 (4 measured)
latency change    = 0.0314243
throughput change = 0.0629371
Class 0:
Packet latency average = 19.7248
	minimum = 7
	maximum = 33
Network latency average = 19.7248
	minimum = 7
	maximum = 33
Slowest packet = 32091
Flit latency average = 19.7248
	minimum = 7
	maximum = 33
Slowest flit = 32091
Fragmentation average = 0
	minimum = 0
	maximum = 0
Injected packet rate average = 0.00916667
	minimum = 0.00733333 (at node 11)
	maximum = 0.012 (at node 10)
Accepted packet rate average = 0.00908333
	minimum = 0 (at node 0)
	maximum = 0.145333 (at node 2)
Injected flit rate average = 0.00916667
	minimum = 0.00733333 (at node 11)
	maximum = 0.012 (at node 10)
Accepted flit rate average= 0.00908333
	minimum = 0 (at node 0)
	maximum = 0.145333 (at node 2)
Injected packet length average = 1
Accepted packet length average = 1
Total in-flight flits = 2 (2 measured)
latency change    = 0.00544479
throughput change = 0.016055
Class 0:
Packet latency average = 19.4603
	minimum = 7
	maximum = 33
Network latency average = 19.4603
	minimum = 7
	maximum = 33
Slowest packet = 32091
Flit latency average = 19.4603
	minimum = 7
	maximum = 33
Slowest flit = 32091
Fragmentation average = 0
	minimum = 0
	maximum = 0
Injected packet rate average = 0.00953125
	minimum = 0.007 (at node 3)
	maximum = 0.013 (at node 10)
Accepted packet rate average = 0.0094375
	minimum = 0 (at node 0)
	maximum = 0.151 (at node 2)
Injected flit rate average = 0.00953125
	minimum = 0.007 (at node 3)
	maximum = 0.013 (at node 10)
Accepted flit rate average= 0.0094375
	minimum = 0 (at node 0)
	maximum = 0.151 (at node 2)
Injected packet length average = 1
Accepted packet length average = 1
Total in-flight flits = 3 (3 measured)
latency change    = 0.0135921
throughput change = 0.0375276
Class 0:
Packet latency average = 19.4158
	minimum = 7
	maximum = 33
Network latency average = 19.4158
	minimum = 7
	maximum = 33
Slowest packet = 32091
Flit latency average = 19.4158
	minimum = 7
	maximum = 33
Slowest flit = 32091
Fragmentation average = 0
	minimum = 0
	maximum = 0
Injected packet rate average = 0.009625
	minimum = 0.0076 (at node 12)
	maximum = 0.0124 (at node 8)
Accepted packet rate average = 0.0095
	minimum = 0 (at node 0)
	maximum = 0.152 (at node 2)
Injected flit rate average = 0.009625
	minimum = 0.0076 (at node 12)
	maximum = 0.0124 (at node 8)
Accepted flit rate average= 0.0095
	minimum = 0 (at node 0)
	maximum = 0.152 (at node 2)
Injected packet length average = 1
Accepted packet length average = 1
Total in-flight flits = 5 (5 measured)
latency change    = 0.00229068
throughput change = 0.00657895
Draining all recorded packets ...
Draining remaining packets ...
Time taken is 4057 cycles
Class 0:
Packet latency average = 20.5211
	minimum = 7
	maximum = 32
Network latency average = 20.5211
	minimum = 7
	maximum = 32
Slowest packet = 32333
Flit latency average = 20.5211
	minimum = 7
	maximum = 32
Slowest flit = 32333
Fragmentation average = 0
	minimum = 0
	maximum = 0
Injected packet rate average = 0.0095
	minimum = 0.004 (at node 3)
	maximum = 0.024 (at node 8)
Accepted packet rate average = 0.008875
	minimum = 0 (at node 0)
	maximum = 0.142 (at node 2)
Injected flit rate average = 0.0095
	minimum = 0.004 (at node 3)
	maximum = 0.024 (at node 8)
Accepted flit rate average= 0.008875
	minimum = 0 (at node 0)
	maximum = 0.142 (at node 2)
Injected packet length average = 1
Accepted packet length average = 1
Total in-flight flits = 5 (0 measured)
latency change    = 1
throughput change = 1
Class 0:
Packet latency average = 19.7071
	minimum = 7
	maximum = 32
Network latency average = 19.7071
	minimum = 7
	maximum = 32
Slowest packet = 32333
Flit latency average = 19.7071
	minimum = 7
	maximum = 32
Slowest flit = 32333
Fragmentation average = 0
	minimum = 0
	maximum = 0
Injected packet rate average = 0.009
	minimum = 0.005 (at node 11)
	maximum = 0.018 (at node 5)
Accepted packet rate average = 0.00875
	minimum = 0 (at node 0)
	maximum = 0.14 (at node 2)
Injected flit rate average = 0.009
	minimum = 0.005 (at node 11)
	maximum = 0.018 (at node 5)
Accepted flit rate average= 0.00875
	minimum = 0 (at node 0)
	maximum = 0.14 (at node 2)
Injected packet length average = 1
Accepted packet length average = 1
Total in-flight flits = 4 (0 measured)
latency change    = 0.041304
throughput change = 0.0142857
Class 0:
Packet latency average = 20
	minimum = 7
	maximum = 34
Network latency average = 20
	minimum = 7
	maximum = 34
Slowest packet = 32539
Flit latency average = 20
	minimum = 7
	maximum = 34
Slowest flit = 32539
Fragmentation average = 0
	minimum = 0
	maximum = 0
Injected packet rate average = 0.011
	minimum = 0.004 (at node 1)
	maximum = 0.016 (at node 2)
Accepted packet rate average = 0.01125
	minimum = 0 (at node 0)
	maximum = 0.18 (at node 2)
Injected flit rate average = 0.011
	minimum = 0.004 (at node 1)
	maximum = 0.016 (at node 2)
Accepted flit rate average= 0.01125
	minimum = 0 (at node 0)
	maximum = 0.18 (at node 2)
Injected packet length average = 1
Accepted packet length average = 1
Total in-flight flits = 2 (0 measured)
latency change    = 0.0146429
throughput change = 0.222222
Warmed up ...Time used is 1500 cycles
Class 0:
Packet latency average = 18.9012
	minimum = 7
	maximum = 32
Network latency average = 18.9012
	minimum = 7
	maximum = 32
Slowest packet = 32571
Flit latency average = 18.988
	minimum = 7
	maximum = 33
Slowest flit = 32549
Fragmentation average = 0
	minimum = 0
	maximum = 0
Injected packet rate average = 0.010625
	minimum = 0.002 (at node 7)
	maximum = 0.02 (at node 2)
Accepted packet rate average = 0.010375
	minimum = 0 (at node 0)
	maximum = 0.166 (at node 2)
Injected flit rate average = 0.010625
	minimum = 0.002 (at node 7)
	maximum = 0.02 (at node 2)
Accepted flit rate average= 0.010375
	minimum = 0 (at node 0)
	maximum = 0.166 (at node 2)
Injected packet length average = 1
Accepted packet length average = 1
Total in-flight flits = 4 (4 measured)
latency change    = 0.0581319
throughput change = 0.0843373
Class 0:
Packet latency average = 19.3203
	minimum = 7
	maximum = 32
Network latency average = 19.3203
	minimum = 7
	maximum = 32
Slowest packet = 32571
Flit latency average = 19.3613
	minimum = 7
	maximum = 33
Slowest flit = 32549
Fragmentation average = 0
	minimum = 0
	maximum = 0
Injected packet rate average = 0.00975
	minimum = 0.004 (at node 8)
	maximum = 0.015 (at node 2)
Accepted packet rate average = 0.0096875
	minimum = 0 (at node 0)
	maximum = 0.155 (at node 2)
Injected flit rate average = 0.00975
	minimum = 0.004 (at node 8)
	maximum = 0.015 (at node 2)
Accepted flit rate average= 0.0096875
	minimum = 0 (at node 0)
	maximum = 0.155 (at node 2)
Injected packet length average = 1
Accepted packet length average = 1
Total in-flight flits = 3 (3 measured)
latency change    = 0.0216885
throughput change = 0.0709677
Class 0:
Packet latency average = 19.8018
	minimum = 7
	maximum = 32
Network latency average = 19.8018
	minimum = 7
	maximum = 32
Slowest packet = 32571
Flit latency average = 19.8253
	minimum = 7
	maximum = 33
Slowest flit = 32549
Fragmentation average = 0
	minimum = 0
	maximum = 0
Injected packet rate average = 0.00954167
	minimum = 0.006 (at node 6)
	maximum = 0.0126667 (at node 0)
Accepted packet rate average = 0.00954167
	minimum = 0 (at node 0)
	maximum = 0.152667 (at node 2)
Injected flit rate average = 0.00954167
	minimum = 0.006 (at node 6)
	maximum = 0.0126667 (at node 0)
Accepted flit rate average= 0.00954167
	minimum = 0 (at node 0)
	maximum = 0.152667 (at node 2)
Injected packet length average = 1
Accepted packet length average = 1
Total in-flight flits = 2 (2 measured)
latency change    = 0.0243161
throughput change = 0.0152838
Class 0:
Packet latency average = 19.3775
	minimum = 7
	maximum = 32
Network latency average = 19.3775
	minimum = 7
	maximum = 32
Slowest packet = 32571
Flit latency average = 19.398
	minimum = 7
	maximum = 33
Slowest flit = 32549
Fragmentation average = 0
	minimum = 0
	maximum = 0
Injected packet rate average = 0.00953125
	minimum = 0.0065 (at node 6)
	maximum = 0.0135 (at node 2)
Accepted packet rate average = 0.0095
	minimum = 0 (at node 0)
	maximum = 0.152 (at node 2)
Injected flit rate average = 0.00953125
	minimum = 0.0065 (at node 6)
	maximum = 0.0135 (at node 2)
Accepted flit rate average= 0.0095
	minimum = 0 (at node 0)
	maximum = 0.152 (at node 2)
Injected packet length average = 1
Accepted packet length average = 1
Total in-flight flits = 3 (3 measured)
latency change    = 0.0218954
throughput change = 0.00438596
Class 0:
Packet latency average = 19.4113
	minimum = 7
	maximum = 32
Network latency average = 19.4113
	minimum = 7
	maximum = 32
Slowest packet = 32571
Flit latency average = 19.4271
	minimum = 7
	maximum = 33
Slowest flit = 32549
Fragmentation average = 0
	minimum = 0
	maximum = 0
Injected packet rate average = 0.009825
	minimum = 0.0064 (at node 6)
	maximum = 0.0136 (at node 2)
Accepted packet rate average = 0.009775
	minimum = 0 (at node 0)
	maximum = 0.1564 (at node 2)
Injected flit rate average = 0.009825
	minimum = 0.0064 (at node 6)
	maximum = 0.0136 (at node 2)
Accepted flit rate average= 0.009775
	minimum = 0 (at node 0)
	maximum = 0.1564 (at node 2)
Injected packet length average = 1
Accepted packet length average = 1
Total in-flight flits = 4 (4 measured)
latency change    = 0.00174268
throughput change = 0.028133
Draining all recorded packets ...
Draining remaining packets ...
Time taken is 4042 cycles
====== Overall Traffic Statistics ======
====== Traffic class 0 ======
Packet latency average = 19.7549 (50 samples)
	minimum = 7 (50 samples)
	maximum = 35.26 (50 samples)
Network latency average = 19.7549 (50 samples)
	minimum = 7 (50 samples)
	maximum = 35.26 (50 samples)
Flit latency average = 19.7751 (50 samples)
	minimum = 7 (50 samples)
	maximum = 35.32 (50 samples)
Fragmentation average = 0 (50 samples)
	minimum = 0 (50 samples)
	maximum = 0 (50 samples)
Injected packet rate average = 0.00996492 (50 samples)
	minimum = 0.00654762 (50 samples)
	maximum = 0.0137871 (50 samples)
Accepted packet rate average = 0.00996361 (50 samples)
	minimum = 0 (50 samples)
	maximum = 0.159418 (50 samples)
Injected flit rate average = 0.00996492 (50 samples)
	minimum = 0.00654762 (50 samples)
	maximum = 0.0137871 (50 samples)
Accepted flit rate average = 0.00996361 (50 samples)
	minimum = 0 (50 samples)
	maximum = 0.159418 (50 samples)
Injected packet size average = 1 (50 samples)
Accepted packet size average = 1 (50 samples)
Hops average = 3.51408 (50 samples)
Total run time 4.69061
