BEGIN Configuration File: /tmp/tmpfarkurby.cfg
topology = mesh;
k = 4;
n = 2;
routing_function = gnn_port_score_route_4x4;
num_vcs = 4;
vc_buf_size = 4;
wait_for_tail_credit = 1;
vc_allocator = islip;
sw_allocator = islip;
alloc_iters = 1;
credit_delay = 2;
routing_delay = 1;
vc_alloc_delay = 1;
sw_alloc_delay = 1;
input_speedup = 2;
output_speedup = 1;
internal_speedup = 1.0;
traffic = hotspot;
packet_size = 1;
sim_type = latency;
injection_rate = 0.01;
warmup_periods = 3;
sample_period = 500;
sim_count = 50;
seed = 0;
link_failures = 0;
fail_seed = 101;

END Configuration File: /tmp/tmpfarkurby.cfg
Class 0:
Packet latency average = 20.6667
	minimum = 7
	maximum = 42
Network latency average = 20.6667
	minimum = 7
	maximum = 42
Slowest packet = 66
Flit latency average = 20.6667
	minimum = 7
	maximum = 42
Slowest flit = 66
Fragmentation average = 0
	minimum = 0
	maximum = 0
Injected packet rate average = 0.010375
	minimum = 0.004 (at node 5)
	maximum = 0.016 (at node 9)
Accepted packet rate average = 0.010125
	minimum = 0 (at node 0)
	maximum = 0.162 (at node 11)
Injected flit rate average = 0.010375
	minimum = 0.004 (at node 5)
	maximum = 0.016 (at node 9)
Accepted flit rate average= 0.010125
	minimum = 0 (at node 0)
	maximum = 0.162 (at node 11)
Injected packet length average = 1
Accepted packet length average = 1
Total in-flight flits = 2 (0 measured)
latency change    = 1
throughput change = 1
Class 0:
Packet latency average = 21.0196
	minimum = 7
	maximum = 42
Network latency average = 21.0196
	minimum = 7
	maximum = 42
Slowest packet = 66
Flit latency average = 21.0196
	minimum = 7
	maximum = 42
Slowest flit = 66
Fragmentation average = 0
	minimum = 0
	maximum = 0
Injected packet rate average = 0.00975
	minimum = 0.004 (at node 11)
	maximum = 0.014 (at node 13)
Accepted packet rate average = 0.0095625
	minimum = 0 (at node 0)
	maximum = 0.153 (at node 11)
Injected flit rate average = 0.00975
	minimum = 0.004 (at node 11)
	maximum = 0.014 (at node 13)
Accepted flit rate average= 0.0095625
	minimum = 0 (at node 0)
	maximum = 0.153 (at node 11)
Injected packet length average = 1
Accepted packet length average = 1
Total in-flight flits = 3 (0 measured)
latency change    = 0.016791
throughput change = 0.0588235
Class 0:
Packet latency average = 20.2113
	minimum = 7
	maximum = 35
Network latency average = 20.2113
	minimum = 7
	maximum = 35
Slowest packet = 216
Flit latency average = 20.2113
	minimum = 7
	maximum = 35
Slowest flit = 216
Fragmentation average = 0
	minimum = 0
	maximum = 0
Injected packet rate average = 0.00925
	minimum = 0.002 (at node 11)
	maximum = 0.016 (at node 10)
Accepted packet rate average = 0.008875
	minimum = 0 (at node 0)
	maximum = 0.142 (at node 11)
Injected flit rate average = 0.00925
	minimum = 0.002 (at node 11)
	maximum = 0.016 (at node 10)
Accepted flit rate average= 0.008875
	minimum = 0 (at node 0)
	maximum = 0.142 (at node 11)
Injected packet length average = 1
Accepted packet length average = 1
Total in-flight flits = 6 (0 measured)
latency change    = 0.0399945
throughput change = 0.0774648
Warmed up ...Time used is 1500 cycles
Class 0:
Packet latency average = 22.6267
	minimum = 7
	maximum = 45
Network latency average = 22.6267
	minimum = 7
	maximum = 45
Slowest packet = 231
Flit latency average = 22.6914
	minimum = 7
	maximum = 45
Slowest flit = 231
Fragmentation average = 0
	minimum = 0
	maximum = 0
Injected packet rate average = 0.00975
	minimum = 0.004 (at node 3)
	maximum = 0.018 (at node 8)
Accepted packet rate average = 0.010125
	minimum = 0 (at node 0)
	maximum = 0.162 (at node 11)
Injected flit rate average = 0.00975
	minimum = 0.004 (at node 3)
	maximum = 0.018 (at node 8)
Accepted flit rate average= 0.010125
	minimum = 0 (at node 0)
	maximum = 0.162 (at node 11)
Injected packet length average = 1
Accepted packet length average = 1
Total in-flight flits = 3 (3 measured)
latency change    = 0.10675
throughput change = 0.123457
Class 0:
Packet latency average = 21.3464
	minimum = 7
	maximum = 45
Network latency average = 21.3464
	minimum = 7
	maximum = 45
Slowest packet = 231
Flit latency average = 21.4277
	minimum = 7
	maximum = 45
Slowest flit = 231
Fragmentation average = 0
	minimum = 0
	maximum = 0
Injected packet rate average = 0.0096875
	minimum = 0.005 (at node 7)
	maximum = 0.016 (at node 13)
Accepted packet rate average = 0.0099375
	minimum = 0 (at node 0)
	maximum = 0.159 (at node 11)
Injected flit rate average = 0.0096875
	minimum = 0.005 (at node 7)
	maximum = 0.016 (at node 13)
Accepted flit rate average= 0.0099375
	minimum = 0 (at node 0)
	maximum = 0.159 (at node 11)
Injected packet length average = 1
Accepted packet length average = 1
Total in-flight flits = 2 (2 measured)
latency change    = 0.0599755
throughput change = 0.0188679
Class 0:
Packet latency average = 20.7437
	minimum = 7
	maximum = 45
Network latency average = 20.7437
	minimum = 7
	maximum = 45
Slowest packet = 231
Flit latency average = 20.8115
	minimum = 7
	maximum = 45
Slowest flit = 231
Fragmentation average = 0
	minimum = 0
	maximum = 0
Injected packet rate average = 0.00991667
	minimum = 0.00733333 (at node 7)
	maximum = 0.0133333 (at node 13)
Accepted packet rate average = 0.0101667
	minimum = 0 (at node 0)
	maximum = 0.162667 (at node 11)
Injected flit rate average = 0.00991667
	minimum = 0.00733333 (at node 7)
	maximum = 0.0133333 (at node 13)
Accepted flit rate average= 0.0101667
	minimum = 0 (at node 0)
	maximum = 0.162667 (at node 11)
Injected packet length average = 1
Accepted packet length average = 1
Total in-flight flits = 0 (0 measured)
latency change    = 0.029055
throughput change = 0.022541
Class 0:
Packet latency average = 20.8949
	minimum = 7
	maximum = 46
Network latency average = 20.8949
	minimum = 7
	maximum = 46
Slowest packet = 513
Flit latency average = 20.9438
	minimum = 7
	maximum = 46
Slowest flit = 513
Fragmentation average = 0
	minimum = 0
	maximum = 0
Injected packet rate average = 0.00990625
	minimum = 0.0075 (at node 1)
	maximum = 0.013 (at node 8)
Accepted packet rate average = 0.01
	minimum = 0 (at node 0)
	maximum = 0.16 (at node 11)
Injected flit rate average = 0.00990625
	minimum = 0.0075 (at node 1)
	maximum = 0.013 (at node 8)
Accepted flit rate average= 0.01
	minimum = 0 (at node 0)
	maximum = 0.16 (at node 11)
Injected packet length average = 1
Accepted packet length average = 1
Total in-flight flits = 3 (3 measured)
latency change    = 0.00723655
throughput change = 0.0166667
Class 0:
Packet latency average = 20.4856
	minimum = 7
	maximum = 46
Network latency average = 20.4856
	minimum = 7
	maximum = 46
Slowest packet = 513
Flit latency average = 20.5323
	minimum = 7
	maximum = 46
Slowest flit = 513
Fragmentation average = 0
	minimum = 0
	maximum = 0
Injected packet rate average = 0.009625
	minimum = 0.0072 (at node 1)
	maximum = 0.0124 (at node 11)
Accepted packet rate average = 0.009675
	minimum = 0 (at node 0)
	maximum = 0.1548 (at node 11)
Injected flit rate average = 0.009625
	minimum = 0.0072 (at node 1)
	maximum = 0.0124 (at node 11)
Accepted flit rate average= 0.009675
	minimum = 0 (at node 0)
	maximum = 0.1548 (at node 11)
Injected packet length average = 1
Accepted packet length average = 1
Total in-flight flits = 4 (4 measured)
latency change    = 0.0199819
throughput change = 0.0335917
Draining all recorded packets ...
Draining remaining packets ...
Time taken is 4040 cycles
Class 0:
Packet latency average = 19.8082
	minimum = 7
	maximum = 33
Network latency average = 19.8082
	minimum = 7
	maximum = 33
Slowest packet = 667
Flit latency average = 19.8082
	minimum = 7
	maximum = 33
Slowest flit = 667
Fragmentation average = 0
	minimum = 0
	maximum = 0
Injected packet rate average = 0.009625
	minimum = 0.004 (at node 4)
	maximum = 0.018 (at node 10)
Accepted packet rate average = 0.009125
	minimum = 0 (at node 0)
	maximum = 0.146 (at node 11)
Injected flit rate average = 0.009625
	minimum = 0.004 (at node 4)
	maximum = 0.018 (at node 10)
Accepted flit rate average= 0.009125
	minimum = 0 (at node 0)
	maximum = 0.146 (at node 11)
Injected packet length average = 1
Accepted packet length average = 1
Total in-flight flits = 4 (0 measured)
latency change    = 1
throughput change = 1
Class 0:
Packet latency average = 19.9371
	minimum = 7
	maximum = 33
Network latency average = 19.9371
	minimum = 7
	maximum = 33
Slowest packet = 667
Flit latency average = 19.9371
	minimum = 7
	maximum = 33
Slowest flit = 667
Fragmentation average = 0
	minimum = 0
	maximum = 0
Injected packet rate average = 0.0091875
	minimum = 0.005 (at node 4)
	maximum = 0.013 (at node 1)
Accepted packet rate average = 0.0089375
	minimum = 0 (at node 0)
	maximum = 0.143 (at node 11)
Injected flit rate average = 0.0091875
	minimum = 0.005 (at node 4)
	maximum = 0.013 (at node 1)
Accepted flit rate average= 0.0089375
	minimum = 0 (at node 0)
	maximum = 0.143 (at node 11)
Injected packet length average = 1
Accepted packet length average = 1
Total in-flight flits = 4 (0 measured)
latency change    = 0.00646252
throughput change = 0.020979
Class 0:
Packet latency average = 19.8118
	minimum = 7
	maximum = 38
Network latency average = 19.8118
	minimum = 7
	maximum = 38
Slowest packet = 779
Flit latency average = 19.8118
	minimum = 7
	maximum = 38
Slowest flit = 779
Fragmentation average = 0
	minimum = 0
	maximum = 0
Injected packet rate average = 0.010625
	minimum = 0.002 (at node 2)
	maximum = 0.02 (at node 15)
Accepted packet rate average = 0.010625
	minimum = 0 (at node 0)
	maximum = 0.17 (at node 11)
Injected flit rate average = 0.010625
	minimum = 0.002 (at node 2)
	maximum = 0.02 (at node 15)
Accepted flit rate average= 0.010625
	minimum = 0 (at node 0)
	maximum = 0.17 (at node 11)
Injected packet length average = 1
Accepted packet length average = 1
Total in-flight flits = 4 (0 measured)
latency change    = 0.00632444
throughput change = 0.158824
Warmed up ...Time used is 1500 cycles
Class 0:
Packet latency average = 21.3235
	minimum = 7
	maximum = 34
Network latency average = 21.3235
	minimum = 7
	maximum = 34
Slowest packet = 896
Flit latency average = 21.3472
	minimum = 7
	maximum = 34
Slowest flit = 896
Fragmentation average = 0
	minimum = 0
	maximum = 0
Injected packet rate average = 0.009375
	minimum = 0.002 (at node 6)
	maximum = 0.018 (at node 13)
Accepted packet rate average = 0.009
	minimum = 0 (at node 0)
	maximum = 0.144 (at node 11)
Injected flit rate average = 0.009375
	minimum = 0.002 (at node 6)
	maximum = 0.018 (at node 13)
Accepted flit rate average= 0.009
	minimum = 0 (at node 0)
	maximum = 0.144 (at node 11)
Injected packet length average = 1
Accepted packet length average = 1
Total in-flight flits = 7 (7 measured)
latency change    = 0.0708966
throughput change = 0.180556
Class 0:
Packet latency average = 20.9935
	minimum = 7
	maximum = 34
Network latency average = 20.9935
	minimum = 7
	maximum = 34
Slowest packet = 896
Flit latency average = 21.0126
	minimum = 7
	maximum = 34
Slowest flit = 896
Fragmentation average = 0
	minimum = 0
	maximum = 0
Injected packet rate average = 0.0100625
	minimum = 0.002 (at node 10)
	maximum = 0.017 (at node 3)
Accepted packet rate average = 0.0099375
	minimum = 0 (at node 0)
	maximum = 0.159 (at node 11)
Injected flit rate average = 0.0100625
	minimum = 0.002 (at node 10)
	maximum = 0.017 (at node 3)
Accepted flit rate average= 0.0099375
	minimum = 0 (at node 0)
	maximum = 0.159 (at node 11)
Injected packet length average = 1
Accepted packet length average = 1
Total in-flight flits = 6 (6 measured)
latency change    = 0.0157182
throughput change = 0.0943396
Class 0:
Packet latency average = 21.0043
	minimum = 7
	maximum = 53
Network latency average = 21.0043
	minimum = 7
	maximum = 53
Slowest packet = 1009
Flit latency average = 21.0171
	minimum = 7
	maximum = 53
Slowest flit = 1009
Fragmentation average = 0
	minimum = 0
	maximum = 0
Injected packet rate average = 0.00975
	minimum = 0.00533333 (at node 10)
	maximum = 0.0186667 (at node 13)
Accepted packet rate average = 0.00975
	minimum = 0 (at node 0)
	maximum = 0.156 (at node 11)
Injected flit rate average = 0.00975
	minimum = 0.00533333 (at node 10)
	maximum = 0.0186667 (at node 13)
Accepted flit rate average= 0.00975
	minimum = 0 (at node 0)
	maximum = 0.156 (at node 11)
Injected packet length average = 1
Accepted packet length average = 1
Total in-flight flits = 4 (4 measured)
latency change    = 0.000514153
throughput change = 0.0192308
Class 0:
Packet latency average = 20.6238
	minimum = 7
	maximum = 53
Network latency average = 20.6238
	minimum = 7
	maximum = 53
Slowest packet = 1009
Flit latency average = 20.6381
	minimum = 7
	maximum = 53
Slowest flit = 1009
Fragmentation average = 0
	minimum = 0
	maximum = 0
Injected packet rate average = 0.00978125
	minimum = 0.0065 (at node 0)
	maximum = 0.0175 (at node 13)
Accepted packet rate average = 0.00984375
	minimum = 0 (at node 0)
	maximum = 0.1575 (at node 11)
Injected flit rate average = 0.00978125
	minimum = 0.0065 (at node 0)
	maximum = 0.0175 (at node 13)
Accepted flit rate average= 0.00984375
	minimum = 0 (at node 0)
	maximum = 0.1575 (at node 11)
Injected packet length average = 1
Accepted packet length average = 1
Total in-flight flits = 2 (2 measured)
latency change    = 0.0184522
throughput change = 0.00952381
Class 0:
Packet latency average = 20.5866
	minimum = 7
	maximum = 53
Network latency average = 20.5866
	minimum = 7
	maximum = 53
Slowest packet = 1009
Flit latency average = 20.598
	minimum = 7
	maximum = 53
Slowest flit = 1009
Fragmentation average = 0
	minimum = 0
	maximum = 0
Injected packet rate average = 0.010175
	minimum = 0.0076 (at node 0)
	maximum = 0.0172 (at node 13)
Accepted packet rate average = 0.0102
	minimum = 0 (at node 0)
	maximum = 0.1632 (at node 11)
Injected flit rate average = 0.010175
	minimum = 0.0076 (at node 0)
	maximum = 0.0172 (at node 13)
Accepted flit rate average= 0.0102
	minimum = 0 (at node 0)
	maximum = 0.1632 (at node 11)
Injected packet length average = 1
Accepted packet length average = 1
Total in-flight flits = 3 (3 measured)
latency change    = 0.00180508
throughput change = 0.0349265
Draining all recorded packets ...
Draining remaining packets ...
Time taken is 4055 cycles
Class 0:
Packet latency average = 20.3895
	minimum = 7
	maximum = 40
Network latency average = 20.3895
	minimum = 7
	maximum = 40
Slowest packet = 1293
Flit latency average = 20.3895
	minimum = 7
	maximum = 40
Slowest flit = 1293
Fragmentation average = 0
	minimum = 0
	maximum = 0
Injected packet rate average = 0.012625
	minimum = 0.006 (at node 8)
	maximum = 0.018 (at node 0)
Accepted packet rate average = 0.011875
	minimum = 0 (at node 0)
	maximum = 0.19 (at node 11)
Injected flit rate average = 0.012625
	minimum = 0.006 (at node 8)
	maximum = 0.018 (at node 0)
Accepted flit rate average= 0.011875
	minimum = 0 (at node 0)
	maximum = 0.19 (at node 11)
Injected packet length average = 1
Accepted packet length average = 1
Total in-flight flits = 6 (0 measured)
latency change    = 1
throughput change = 1
Class 0:
Packet latency average = 20.8065
	minimum = 7
	maximum = 44
Network latency average = 20.8065
	minimum = 7
	maximum = 44
Slowest packet = 1353
Flit latency average = 20.8065
	minimum = 7
	maximum = 44
Slowest flit = 1353
Fragmentation average = 0
	minimum = 0
	maximum = 0
Injected packet rate average = 0.0116875
	minimum = 0.009 (at node 8)
	maximum = 0.015 (at node 1)
Accepted packet rate average = 0.011625
	minimum = 0 (at node 0)
	maximum = 0.186 (at node 11)
Injected flit rate average = 0.0116875
	minimum = 0.009 (at node 8)
	maximum = 0.015 (at node 1)
Accepted flit rate average= 0.011625
	minimum = 0 (at node 0)
	maximum = 0.186 (at node 11)
Injected packet length average = 1
Accepted packet length average = 1
Total in-flight flits = 1 (0 measured)
latency change    = 0.0200408
throughput change = 0.0215054
Class 0:
Packet latency average = 19.1842
	minimum = 7
	maximum = 34
Network latency average = 19.1842
	minimum = 7
	maximum = 34
Slowest packet = 1459
Flit latency average = 19.1842
	minimum = 7
	maximum = 34
Slowest flit = 1459
Fragmentation average = 0
	minimum = 0
	maximum = 0
Injected packet rate average = 0.009625
	minimum = 0.002 (at node 5)
	maximum = 0.02 (at node 7)
Accepted packet rate average = 0.0095
	minimum = 0 (at node 0)
	maximum = 0.152 (at node 11)
Injected flit rate average = 0.009625
	minimum = 0.002 (at node 5)
	maximum = 0.02 (at node 7)
Accepted flit rate average= 0.0095
	minimum = 0 (at node 0)
	maximum = 0.152 (at node 11)
Injected packet length average = 1
Accepted packet length average = 1
Total in-flight flits = 2 (0 measured)
latency change    = 0.0845613
throughput change = 0.223684
Warmed up ...Time used is 1500 cycles
Class 0:
Packet latency average = 20.4219
	minimum = 7
	maximum = 36
Network latency average = 20.4219
	minimum = 7
	maximum = 36
Slowest packet = 1582
Flit latency average = 20.4697
	minimum = 7
	maximum = 36
Slowest flit = 1582
Fragmentation average = 0
	minimum = 0
	maximum = 0
Injected packet rate average = 0.00825
	minimum = 0.004 (at node 0)
	maximum = 0.016 (at node 3)
Accepted packet rate average = 0.00825
	minimum = 0 (at node 0)
	maximum = 0.132 (at node 11)
Injected flit rate average = 0.00825
	minimum = 0.004 (at node 0)
	maximum = 0.016 (at node 3)
Accepted flit rate average= 0.00825
	minimum = 0 (at node 0)
	maximum = 0.132 (at node 11)
Injected packet length average = 1
Accepted packet length average = 1
Total in-flight flits = 2 (2 measured)
latency change    = 0.0606048
throughput change = 0.151515
Class 0:
Packet latency average = 20.7394
	minimum = 7
	maximum = 46
Network latency average = 20.7394
	minimum = 7
	maximum = 46
Slowest packet = 1630
Flit latency average = 20.7569
	minimum = 7
	maximum = 46
Slowest flit = 1630
Fragmentation average = 0
	minimum = 0
	maximum = 0
Injected packet rate average = 0.009125
	minimum = 0.003 (at node 2)
	maximum = 0.013 (at node 5)
Accepted packet rate average = 0.009
	minimum = 0 (at node 0)
	maximum = 0.144 (at node 11)
Injected flit rate average = 0.009125
	minimum = 0.003 (at node 2)
	maximum = 0.013 (at node 5)
Accepted flit rate average= 0.009
	minimum = 0 (at node 0)
	maximum = 0.144 (at node 11)
Injected packet length average = 1
Accepted packet length average = 1
Total in-flight flits = 4 (4 measured)
latency change    = 0.015312
throughput change = 0.0833333
Class 0:
Packet latency average = 20.4356
	minimum = 7
	maximum = 46
Network latency average = 20.4356
	minimum = 7
	maximum = 46
Slowest packet = 1630
Flit latency average = 20.4493
	minimum = 7
	maximum = 46
Slowest flit = 1630
Fragmentation average = 0
	minimum = 0
	maximum = 0
Injected packet rate average = 0.00941667
	minimum = 0.00533333 (at node 2)
	maximum = 0.0133333 (at node 1)
Accepted packet rate average = 0.00945833
	minimum = 0 (at node 0)
	maximum = 0.151333 (at node 11)
Injected flit rate average = 0.00941667
	minimum = 0.00533333 (at node 2)
	maximum = 0.0133333 (at node 1)
Accepted flit rate average= 0.00945833
	minimum = 0 (at node 0)
	maximum = 0.151333 (at node 11)
Injected packet length average = 1
Accepted packet length average = 1
Total in-flight flits = 1 (1 measured)
latency change    = 0.0148702
throughput change = 0.0484581
Class 0:
Packet latency average = 20.3981
	minimum = 7
	maximum = 46
Network latency average = 20.3981
	minimum = 7
	maximum = 46
Slowest packet = 1630
Flit latency average = 20.4082
	minimum = 7
	maximum = 46
Slowest flit = 1630
Fragmentation average = 0
	minimum = 0
	maximum = 0
Injected packet rate average = 0.0098125
	minimum = 0.0085 (at node 2)
	maximum = 0.0125 (at node 1)
Accepted packet rate average = 0.009875
	minimum = 0 (at node 0)
	maximum = 0.158 (at node 11)
Injected flit rate average = 0.0098125
	minimum = 0.0085 (at node 2)
	maximum = 0.0125 (at node 1)
Accepted flit rate average= 0.009875
	minimum = 0 (at node 0)
	maximum = 0.158 (at node 11)
Injected packet length average = 1
Accepted packet length average = 1
Total in-flight flits = 0 (0 measured)
latency change    = 0.00183676
throughput change = 0.0421941
Class 0:
Packet latency average = 20.643
	minimum = 7
	maximum = 52
Network latency average = 20.643
	minimum = 7
	maximum = 52
Slowest packet = 1881
Flit latency average = 20.6499
	minimum = 7
	maximum = 52
Slowest flit = 1881
Fragmentation average = 0
	minimum = 0
	maximum = 0
Injected packet rate average = 0.00995
	minimum = 0.0084 (at node 6)
	maximum = 0.012 (at node 12)
Accepted packet rate average = 0.009925
	minimum = 0 (at node 0)
	maximum = 0.1588 (at node 11)
Injected flit rate average = 0.00995
	minimum = 0.0084 (at node 6)
	maximum = 0.012 (at node 12)
Accepted flit rate average= 0.009925
	minimum = 0 (at node 0)
	maximum = 0.1588 (at node 11)
Injected packet length average = 1
Accepted packet length average = 1
Total in-flight flits = 3 (3 measured)
latency change    = 0.0118659
throughput change = 0.00503778
Draining all recorded packets ...
Draining remaining packets ...
Time taken is 4013 cycles
Class 0:
Packet latency average = 20.1059
	minimum = 7
	maximum = 36
Network latency average = 20.1059
	minimum = 7
	maximum = 36
Slowest packet = 1955
Flit latency average = 20.1059
	minimum = 7
	maximum = 36
Slowest flit = 1955
Fragmentation average = 0
	minimum = 0
	maximum = 0
Injected packet rate average = 0.011125
	minimum = 0.002 (at node 10)
	maximum = 0.018 (at node 2)
Accepted packet rate average = 0.010625
	minimum = 0 (at node 0)
	maximum = 0.17 (at node 11)
Injected flit rate average = 0.011125
	minimum = 0.002 (at node 10)
	maximum = 0.018 (at node 2)
Accepted flit rate average= 0.010625
	minimum = 0 (at node 0)
	maximum = 0.17 (at node 11)
Injected packet length average = 1
Accepted packet length average = 1
Total in-flight flits = 4 (0 measured)
latency change    = 1
throughput change = 1
Class 0:
Packet latency average = 19.9639
	minimum = 7
	maximum = 38
Network latency average = 19.9639
	minimum = 7
	maximum = 38
Slowest packet = 2033
Flit latency average = 19.9639
	minimum = 7
	maximum = 38
Slowest flit = 2033
Fragmentation average = 0
	minimum = 0
	maximum = 0
Injected packet rate average = 0.0104375
	minimum = 0.006 (at node 10)
	maximum = 0.013 (at node 2)
Accepted packet rate average = 0.010375
	minimum = 0 (at node 0)
	maximum = 0.166 (at node 11)
Injected flit rate average = 0.0104375
	minimum = 0.006 (at node 10)
	maximum = 0.013 (at node 2)
Accepted flit rate average= 0.010375
	minimum = 0 (at node 0)
	maximum = 0.166 (at node 11)
Injected packet length average = 1
Accepted packet length average = 1
Total in-flight flits = 1 (0 measured)
latency change    = 0.0071142
throughput change = 0.0240964
Class 0:
Packet latency average = 21.0805
	minimum = 7
	maximum = 42
Network latency average = 21.0805
	minimum = 7
	maximum = 42
Slowest packet = 2166
Flit latency average = 21.0805
	minimum = 7
	maximum = 42
Slowest flit = 2166
Fragmentation average = 0
	minimum = 0
	maximum = 0
Injected packet rate average = 0.011125
	minimum = 0.002 (at node 3)
	maximum = 0.018 (at node 6)
Accepted packet rate average = 0.010875
	minimum = 0 (at node 0)
	maximum = 0.174 (at node 11)
Injected flit rate average = 0.011125
	minimum = 0.002 (at node 3)
	maximum = 0.018 (at node 6)
Accepted flit rate average= 0.010875
	minimum = 0 (at node 0)
	maximum = 0.174 (at node 11)
Injected packet length average = 1
Accepted packet length average = 1
Total in-flight flits = 3 (0 measured)
latency change    = 0.0529687
throughput change = 0.045977
Warmed up ...Time used is 1500 cycles
Class 0:
Packet latency average = 19.4179
	minimum = 7
	maximum = 51
Network latency average = 19.4179
	minimum = 7
	maximum = 51
Slowest packet = 2212
Flit latency average = 19.5
	minimum = 7
	maximum = 51
Slowest flit = 2212
Fragmentation average = 0
	minimum = 0
	maximum = 0
Injected packet rate average = 0.009
	minimum = 0.006 (at node 1)
	maximum = 0.012 (at node 0)
Accepted packet rate average = 0.00875
	minimum = 0 (at node 0)
	maximum = 0.14 (at node 11)
Injected flit rate average = 0.009
	minimum = 0.006 (at node 1)
	maximum = 0.012 (at node 0)
Accepted flit rate average= 0.00875
	minimum = 0 (at node 0)
	maximum = 0.14 (at node 11)
Injected packet length average = 1
Accepted packet length average = 1
Total in-flight flits = 5 (5 measured)
latency change    = 0.0856194
throughput change = 0.242857
Class 0:
Packet latency average = 20.2789
	minimum = 7
	maximum = 51
Network latency average = 20.2789
	minimum = 7
	maximum = 51
Slowest packet = 2212
Flit latency average = 20.3
	minimum = 7
	maximum = 51
Slowest flit = 2212
Fragmentation average = 0
	minimum = 0
	maximum = 0
Injected packet rate average = 0.0093125
	minimum = 0.007 (at node 1)
	maximum = 0.012 (at node 0)
Accepted packet rate average = 0.009375
	minimum = 0 (at node 0)
	maximum = 0.15 (at node 11)
Injected flit rate average = 0.0093125
	minimum = 0.007 (at node 1)
	maximum = 0.012 (at node 0)
Accepted flit rate average= 0.009375
	minimum = 0 (at node 0)
	maximum = 0.15 (at node 11)
Injected packet length average = 1
Accepted packet length average = 1
Total in-flight flits = 2 (2 measured)
latency change    = 0.042458
throughput change = 0.0666667
Class 0:
Packet latency average = 19.9083
	minimum = 7
	maximum = 51
Network latency average = 19.9083
	minimum = 7
	maximum = 51
Slowest packet = 2212
Flit latency average = 19.9276
	minimum = 7
	maximum = 51
Slowest flit = 2212
Fragmentation average = 0
	minimum = 0
	maximum = 0
Injected packet rate average = 0.00916667
	minimum = 0.006 (at node 12)
	maximum = 0.012 (at node 11)
Accepted packet rate average = 0.00920833
	minimum = 0 (at node 0)
	maximum = 0.147333 (at node 11)
Injected flit rate average = 0.00916667
	minimum = 0.006 (at node 12)
	maximum = 0.012 (at node 11)
Accepted flit rate average= 0.00920833
	minimum = 0 (at node 0)
	maximum = 0.147333 (at node 11)
Injected packet length average = 1
Accepted packet length average = 1
Total in-flight flits = 2 (2 measured)
latency change    = 0.0186181
throughput change = 0.0180995
Class 0:
Packet latency average = 19.8675
	minimum = 7
	maximum = 51
Network latency average = 19.8675
	minimum = 7
	maximum = 51
Slowest packet = 2212
Flit latency average = 19.882
	minimum = 7
	maximum = 51
Slowest flit = 2212
Fragmentation average = 0
	minimum = 0
	maximum = 0
Injected packet rate average = 0.00953125
	minimum = 0.007 (at node 3)
	maximum = 0.012 (at node 7)
Accepted packet rate average = 0.00953125
	minimum = 0 (at node 0)
	maximum = 0.1525 (at node 11)
Injected flit rate average = 0.00953125
	minimum = 0.007 (at node 3)
	maximum = 0.012 (at node 7)
Accepted flit rate average= 0.00953125
	minimum = 0 (at node 0)
	maximum = 0.1525 (at node 11)
Injected packet length average = 1
Accepted packet length average = 1
Total in-flight flits = 3 (3 measured)
latency change    = 0.00204893
throughput change = 0.0338798
Class 0:
Packet latency average = 19.9609
	minimum = 7
	maximum = 51
Network latency average = 19.9609
	minimum = 7
	maximum = 51
Slowest packet = 2212
Flit latency average = 19.9716
	minimum = 7
	maximum = 51
Slowest flit = 2212
Fragmentation average = 0
	minimum = 0
	maximum = 0
Injected packet rate average = 0.009675
	minimum = 0.0072 (at node 3)
	maximum = 0.012 (at node 5)
Accepted packet rate average = 0.009675
	minimum = 0 (at node 0)
	maximum = 0.1548 (at node 11)
Injected flit rate average = 0.009675
	minimum = 0.0072 (at node 3)
	maximum = 0.012 (at node 5)
Accepted flit rate average= 0.009675
	minimum = 0 (at node 0)
	maximum = 0.1548 (at node 11)
Injected packet length average = 1
Accepted packet length average = 1
Total in-flight flits = 3 (3 measured)
latency change    = 0.00467853
throughput change = 0.0148579
Draining all recorded packets ...
Draining remaining packets ...
Time taken is 4030 cycles
Class 0:
Packet latency average = 22.8052
	minimum = 7
	maximum = 52
Network latency average = 22.8052
	minimum = 7
	maximum = 52
Slowest packet = 2587
Flit latency average = 22.8052
	minimum = 7
	maximum = 52
Slowest flit = 2587
Fragmentation average = 0
	minimum = 0
	maximum = 0
Injected packet rate average = 0.010125
	minimum = 0.006 (at node 7)
	maximum = 0.018 (at node 4)
Accepted packet rate average = 0.009625
	minimum = 0 (at node 0)
	maximum = 0.154 (at node 11)
Injected flit rate average = 0.010125
	minimum = 0.006 (at node 7)
	maximum = 0.018 (at node 4)
Accepted flit rate average= 0.009625
	minimum = 0 (at node 0)
	maximum = 0.154 (at node 11)
Injected packet length average = 1
Accepted packet length average = 1
Total in-flight flits = 4 (0 measured)
latency change    = 1
throughput change = 1
Class 0:
Packet latency average = 21.6226
	minimum = 7
	maximum = 52
Network latency average = 21.6226
	minimum = 7
	maximum = 52
Slowest packet = 2587
Flit latency average = 21.6226
	minimum = 7
	maximum = 52
Slowest flit = 2587
Fragmentation average = 0
	minimum = 0
	maximum = 0
Injected packet rate average = 0.010375
	minimum = 0.005 (at node 7)
	maximum = 0.014 (at node 11)
Accepted packet rate average = 0.0099375
	minimum = 0 (at node 0)
	maximum = 0.159 (at node 11)
Injected flit rate average = 0.010375
	minimum = 0.005 (at node 7)
	maximum = 0.014 (at node 11)
Accepted flit rate average= 0.0099375
	minimum = 0 (at node 0)
	maximum = 0.159 (at node 11)
Injected packet length average = 1
Accepted packet length average = 1
Total in-flight flits = 7 (0 measured)
latency change    = 0.0546905
throughput change = 0.0314465
Class 0:
Packet latency average = 20.0938
	minimum = 7
	maximum = 45
Network latency average = 20.0938
	minimum = 7
	maximum = 45
Slowest packet = 2759
Flit latency average = 20.0938
	minimum = 7
	maximum = 45
Slowest flit = 2759
Fragmentation average = 0
	minimum = 0
	maximum = 0
Injected packet rate average = 0.007375
	minimum = 0.002 (at node 8)
	maximum = 0.014 (at node 11)
Accepted packet rate average = 0.008
	minimum = 0 (at node 0)
	maximum = 0.128 (at node 11)
Injected flit rate average = 0.007375
	minimum = 0.002 (at node 8)
	maximum = 0.014 (at node 11)
Accepted flit rate average= 0.008
	minimum = 0 (at node 0)
	maximum = 0.128 (at node 11)
Injected packet length average = 1
Accepted packet length average = 1
Total in-flight flits = 2 (0 measured)
latency change    = 0.0760879
throughput change = 0.242188
Warmed up ...Time used is 1500 cycles
Class 0:
Packet latency average = 20.5714
	minimum = 7
	maximum = 35
Network latency average = 20.5714
	minimum = 7
	maximum = 35
Slowest packet = 2800
Flit latency average = 20.7342
	minimum = 7
	maximum = 35
Slowest flit = 2800
Fragmentation average = 0
	minimum = 0
	maximum = 0
Injected packet rate average = 0.010125
	minimum = 0 (at node 10)
	maximum = 0.018 (at node 8)
Accepted packet rate average = 0.009875
	minimum = 0 (at node 0)
	maximum = 0.158 (at node 11)
Injected flit rate average = 0.010125
	minimum = 0 (at node 10)
	maximum = 0.018 (at node 8)
Accepted flit rate average= 0.009875
	minimum = 0 (at node 0)
	maximum = 0.158 (at node 11)
Injected packet length average = 1
Accepted packet length average = 1
Total in-flight flits = 4 (4 measured)
latency change    = 0.0232205
throughput change = 0.189873
Class 0:
Packet latency average = 21.5521
	minimum = 7
	maximum = 51
Network latency average = 21.5521
	minimum = 7
	maximum = 51
Slowest packet = 2934
Flit latency average = 21.6182
	minimum = 7
	maximum = 51
Slowest flit = 2934
Fragmentation average = 0
	minimum = 0
	maximum = 0
Injected packet rate average = 0.010375
	minimum = 0.005 (at node 9)
	maximum = 0.017 (at node 8)
Accepted packet rate average = 0.0103125
	minimum = 0 (at node 0)
	maximum = 0.165 (at node 11)
Injected flit rate average = 0.010375
	minimum = 0.005 (at node 9)
	maximum = 0.017 (at node 8)
Accepted flit rate average= 0.0103125
	minimum = 0 (at node 0)
	maximum = 0.165 (at node 11)
Injected packet length average = 1
Accepted packet length average = 1
Total in-flight flits = 3 (3 measured)
latency change    = 0.0455045
throughput change = 0.0424242
Class 0:
Packet latency average = 21.1688
	minimum = 7
	maximum = 51
Network latency average = 21.1688
	minimum = 7
	maximum = 51
Slowest packet = 2934
Flit latency average = 21.2189
	minimum = 7
	maximum = 51
Slowest flit = 2934
Fragmentation average = 0
	minimum = 0
	maximum = 0
Injected packet rate average = 0.00970833
	minimum = 0.00333333 (at node 9)
	maximum = 0.0146667 (at node 8)
Accepted packet rate average = 0.00970833
	minimum = 0 (at node 0)
	maximum = 0.155333 (at node 11)
Injected flit rate average = 0.00970833
	minimum = 0.00333333 (at node 9)
	maximum = 0.0146667 (at node 8)
Accepted flit rate average= 0.00970833
	minimum = 0 (at node 0)
	maximum = 0.155333 (at node 11)
Injected packet length average = 1
Accepted packet length average = 1
Total in-flight flits = 2 (2 measured)
latency change    = 0.0181076
throughput change = 0.0622318
Class 0:
Packet latency average = 20.4346
	minimum = 7
	maximum = 51
Network latency average = 20.4346
	minimum = 7
	maximum = 51
Slowest packet = 2934
Flit latency average = 20.4773
	minimum = 7
	maximum = 51
Slowest flit = 2934
Fragmentation average = 0
	minimum = 0
	maximum = 0
Injected packet rate average = 0.00959375
	minimum = 0.0045 (at node 9)
	maximum = 0.0135 (at node 8)
Accepted packet rate average = 0.009625
	minimum = 0 (at node 0)
	maximum = 0.154 (at node 11)
Injected flit rate average = 0.00959375
	minimum = 0.0045 (at node 9)
	maximum = 0.0135 (at node 8)
Accepted flit rate average= 0.009625
	minimum = 0 (at node 0)
	maximum = 0.154 (at node 11)
Injected packet length average = 1
Accepted packet length average = 1
Total in-flight flits = 1 (1 measured)
latency change    = 0.0359287
throughput change = 0.00865801
Class 0:
Packet latency average = 20.3968
	minimum = 7
	maximum = 51
Network latency average = 20.3968
	minimum = 7
	maximum = 51
Slowest packet = 2934
Flit latency average = 20.432
	minimum = 7
	maximum = 51
Slowest flit = 2934
Fragmentation average = 0
	minimum = 0
	maximum = 0
Injected packet rate average = 0.0094
	minimum = 0.0052 (at node 9)
	maximum = 0.0132 (at node 8)
Accepted packet rate average = 0.009375
	minimum = 0 (at node 0)
	maximum = 0.15 (at node 11)
Injected flit rate average = 0.0094
	minimum = 0.0052 (at node 9)
	maximum = 0.0132 (at node 8)
Accepted flit rate average= 0.009375
	minimum = 0 (at node 0)
	maximum = 0.15 (at node 11)
Injected packet length average = 1
Accepted packet length average = 1
Total in-flight flits = 3 (3 measured)
latency change    = 0.00185606
throughput change = 0.0266667
Class 0:
Packet latency average = 20.3137
	minimum = 7
	maximum = 51
Network latency average = 20.3137
	minimum = 7
	maximum = 51
Slowest packet = 2934
Flit latency average = 20.3427
	minimum = 7
	maximum = 51
Slowest flit = 2934
Fragmentation average = 0
	minimum = 0
	maximum = 0
Injected packet rate average = 0.00958333
	minimum = 0.00633333 (at node 2)
	maximum = 0.0123333 (at node 8)
Accepted packet rate average = 0.00960417
	minimum = 0 (at node 0)
	maximum = 0.153667 (at node 11)
Injected flit rate average = 0.00958333
	minimum = 0.00633333 (at node 2)
	maximum = 0.0123333 (at node 8)
Accepted flit rate average= 0.00960417
	minimum = 0 (at node 0)
	maximum = 0.153667 (at node 11)
Injected packet length average = 1
Accepted packet length average = 1
Total in-flight flits = 1 (1 measured)
latency change    = 0.00408873
throughput change = 0.0238612
Draining all recorded packets ...
Draining remaining packets ...
Time taken is 4532 cycles
Class 0:
Packet latency average = 19.6849
	minimum = 7
	maximum = 41
Network latency average = 19.6849
	minimum = 7
	maximum = 41
Slowest packet = 3266
Flit latency average = 19.6849
	minimum = 7
	maximum = 41
Slowest flit = 3266
Fragmentation average = 0
	minimum = 0
	maximum = 0
Injected packet rate average = 0.009625
	minimum = 0.002 (at node 5)
	maximum = 0.016 (at node 7)
Accepted packet rate average = 0.009125
	minimum = 0 (at node 0)
	maximum = 0.146 (at node 11)
Injected flit rate average = 0.009625
	minimum = 0.002 (at node 5)
	maximum = 0.016 (at node 7)
Accepted flit rate average= 0.009125
	minimum = 0 (at node 0)
	maximum = 0.146 (at node 11)
Injected packet length average = 1
Accepted packet length average = 1
Total in-flight flits = 4 (0 measured)
latency change    = 1
throughput change = 1
Class 0:
Packet latency average = 20.321
	minimum = 7
	maximum = 41
Network latency average = 20.321
	minimum = 7
	maximum = 41
Slowest packet = 3266
Flit latency average = 20.321
	minimum = 7
	maximum = 41
Slowest flit = 3266
Fragmentation average = 0
	minimum = 0
	maximum = 0
Injected packet rate average = 0.0101875
	minimum = 0.004 (at node 5)
	maximum = 0.02 (at node 12)
Accepted packet rate average = 0.010125
	minimum = 0 (at node 0)
	maximum = 0.162 (at node 11)
Injected flit rate average = 0.0101875
	minimum = 0.004 (at node 5)
	maximum = 0.02 (at node 12)
Accepted flit rate average= 0.010125
	minimum = 0 (at node 0)
	maximum = 0.162 (at node 11)
Injected packet length average = 1
Accepted packet length average = 1
Total in-flight flits = 1 (0 measured)
latency change    = 0.0313005
throughput change = 0.0987654
Class 0:
Packet latency average = 21.4111
	minimum = 7
	maximum = 55
Network latency average = 21.4111
	minimum = 7
	maximum = 55
Slowest packet = 3438
Flit latency average = 21.4111
	minimum = 7
	maximum = 55
Slowest flit = 3438
Fragmentation average = 0
	minimum = 0
	maximum = 0
Injected packet rate average = 0.011625
	minimum = 0.004 (at node 1)
	maximum = 0.02 (at node 0)
Accepted packet rate average = 0.01125
	minimum = 0 (at node 0)
	maximum = 0.18 (at node 11)
Injected flit rate average = 0.011625
	minimum = 0.004 (at node 1)
	maximum = 0.02 (at node 0)
Accepted flit rate average= 0.01125
	minimum = 0 (at node 0)
	maximum = 0.18 (at node 11)
Injected packet length average = 1
Accepted packet length average = 1
Total in-flight flits = 4 (0 measured)
latency change    = 0.0509139
throughput change = 0.1
Warmed up ...Time used is 1500 cycles
Class 0:
Packet latency average = 20.08
	minimum = 7
	maximum = 40
Network latency average = 20.08
	minimum = 7
	maximum = 40
Slowest packet = 3559
Flit latency average = 20.0506
	minimum = 7
	maximum = 40
Slowest flit = 3559
Fragmentation average = 0
	minimum = 0
	maximum = 0
Injected packet rate average = 0.009625
	minimum = 0.004 (at node 12)
	maximum = 0.022 (at node 14)
Accepted packet rate average = 0.009875
	minimum = 0 (at node 0)
	maximum = 0.158 (at node 11)
Injected flit rate average = 0.009625
	minimum = 0.004 (at node 12)
	maximum = 0.022 (at node 14)
Accepted flit rate average= 0.009875
	minimum = 0 (at node 0)
	maximum = 0.158 (at node 11)
Injected packet length average = 1
Accepted packet length average = 1
Total in-flight flits = 2 (2 measured)
latency change    = 0.0662904
throughput change = 0.139241
Class 0:
Packet latency average = 20.1095
	minimum = 7
	maximum = 40
Network latency average = 20.1095
	minimum = 7
	maximum = 40
Slowest packet = 3559
Flit latency average = 20.0922
	minimum = 7
	maximum = 40
Slowest flit = 3559
Fragmentation average = 0
	minimum = 0
	maximum = 0
Injected packet rate average = 0.008625
	minimum = 0.004 (at node 12)
	maximum = 0.012 (at node 11)
Accepted packet rate average = 0.0088125
	minimum = 0 (at node 0)
	maximum = 0.141 (at node 11)
Injected flit rate average = 0.008625
	minimum = 0.004 (at node 12)
	maximum = 0.012 (at node 11)
Accepted flit rate average= 0.0088125
	minimum = 0 (at node 0)
	maximum = 0.141 (at node 11)
Injected packet length average = 1
Accepted packet length average = 1
Total in-flight flits = 1 (1 measured)
latency change    = 0.00146642
throughput change = 0.120567
Class 0:
Packet latency average = 19.7463
	minimum = 7
	maximum = 52
Network latency average = 19.7463
	minimum = 7
	maximum = 52
Slowest packet = 3656
Flit latency average = 19.7416
	minimum = 7
	maximum = 52
Slowest flit = 3656
Fragmentation average = 0
	minimum = 0
	maximum = 0
Injected packet rate average = 0.00866667
	minimum = 0.004 (at node 2)
	maximum = 0.014 (at node 11)
Accepted packet rate average = 0.00870833
	minimum = 0 (at node 0)
	maximum = 0.139333 (at node 11)
Injected flit rate average = 0.00866667
	minimum = 0.004 (at node 2)
	maximum = 0.014 (at node 11)
Accepted flit rate average= 0.00870833
	minimum = 0 (at node 0)
	maximum = 0.139333 (at node 11)
Injected packet length average = 1
Accepted packet length average = 1
Total in-flight flits = 3 (3 measured)
latency change    = 0.0183906
throughput change = 0.0119617
Class 0:
Packet latency average = 19.4695
	minimum = 7
	maximum = 52
Network latency average = 19.4695
	minimum = 7
	maximum = 52
Slowest packet = 3656
Flit latency average = 19.47
	minimum = 7
	maximum = 52
Slowest flit = 3656
Fragmentation average = 0
	minimum = 0
	maximum = 0
Injected packet rate average = 0.0088125
	minimum = 0.0045 (at node 2)
	maximum = 0.0145 (at node 11)
Accepted packet rate average = 0.00884375
	minimum = 0 (at node 0)
	maximum = 0.1415 (at node 11)
Injected flit rate average = 0.0088125
	minimum = 0.0045 (at node 2)
	maximum = 0.0145 (at node 11)
Accepted flit rate average= 0.00884375
	minimum = 0 (at node 0)
	maximum = 0.1415 (at node 11)
Injected packet length average = 1
Accepted packet length average = 1
Total in-flight flits = 3 (3 measured)
latency change    = 0.0142175
throughput change = 0.0153121
Class 0:
Packet latency average = 19.5265
	minimum = 7
	maximum = 52
Network latency average = 19.5265
	minimum = 7
	maximum = 52
Slowest packet = 3656
Flit latency average = 19.5262
	minimum = 7
	maximum = 52
Slowest flit = 3656
Fragmentation average = 0
	minimum = 0
	maximum = 0
Injected packet rate average = 0.00905
	minimum = 0.006 (at node 2)
	maximum = 0.0144 (at node 11)
Accepted packet rate average = 0.009075
	minimum = 0 (at node 0)
	maximum = 0.1452 (at node 11)
Injected flit rate average = 0.00905
	minimum = 0.006 (at node 2)
	maximum = 0.0144 (at node 11)
Accepted flit rate average= 0.009075
	minimum = 0 (at node 0)
	maximum = 0.1452 (at node 11)
Injected packet length average = 1
Accepted packet length average = 1
Total in-flight flits = 3 (3 measured)
latency change    = 0.00291545
throughput change = 0.0254821
Draining all recorded packets ...
Draining remaining packets ...
Time taken is 4050 cycles
Class 0:
Packet latency average = 20.6143
	minimum = 7
	maximum = 38
Network latency average = 20.6143
	minimum = 7
	maximum = 38
Slowest packet = 3934
Flit latency average = 20.6143
	minimum = 7
	maximum = 38
Slowest flit = 3934
Fragmentation average = 0
	minimum = 0
	maximum = 0
Injected packet rate average = 0.009
	minimum = 0 (at node 10)
	maximum = 0.02 (at node 14)
Accepted packet rate average = 0.00875
	minimum = 0 (at node 0)
	maximum = 0.14 (at node 11)
Injected flit rate average = 0.009
	minimum = 0 (at node 10)
	maximum = 0.02 (at node 14)
Accepted flit rate average= 0.00875
	minimum = 0 (at node 0)
	maximum = 0.14 (at node 11)
Injected packet length average = 1
Accepted packet length average = 1
Total in-flight flits = 2 (0 measured)
latency change    = 1
throughput change = 1
Class 0:
Packet latency average = 19.5679
	minimum = 7
	maximum = 38
Network latency average = 19.5679
	minimum = 7
	maximum = 38
Slowest packet = 3934
Flit latency average = 19.5679
	minimum = 7
	maximum = 38
Slowest flit = 3934
Fragmentation average = 0
	minimum = 0
	maximum = 0
Injected packet rate average = 0.01025
	minimum = 0.004 (at node 10)
	maximum = 0.018 (at node 14)
Accepted packet rate average = 0.010125
	minimum = 0 (at node 0)
	maximum = 0.162 (at node 11)
Injected flit rate average = 0.01025
	minimum = 0.004 (at node 10)
	maximum = 0.018 (at node 14)
Accepted flit rate average= 0.010125
	minimum = 0 (at node 0)
	maximum = 0.162 (at node 11)
Injected packet length average = 1
Accepted packet length average = 1
Total in-flight flits = 2 (0 measured)
latency change    = 0.0534745
throughput change = 0.135802
Class 0:
Packet latency average = 20.931
	minimum = 7
	maximum = 40
Network latency average = 20.931
	minimum = 7
	maximum = 40
Slowest packet = 4098
Flit latency average = 20.931
	minimum = 7
	maximum = 40
Slowest flit = 4098
Fragmentation average = 0
	minimum = 0
	maximum = 0
Injected packet rate average = 0.01125
	minimum = 0.006 (at node 4)
	maximum = 0.02 (at node 0)
Accepted packet rate average = 0.010875
	minimum = 0 (at node 0)
	maximum = 0.174 (at node 11)
Injected flit rate average = 0.01125
	minimum = 0.006 (at node 4)
	maximum = 0.02 (at node 0)
Accepted flit rate average= 0.010875
	minimum = 0 (at node 0)
	maximum = 0.174 (at node 11)
Injected packet length average = 1
Accepted packet length average = 1
Total in-flight flits = 5 (0 measured)
latency change    = 0.065125
throughput change = 0.0689655
Warmed up ...Time used is 1500 cycles
Class 0:
Packet latency average = 20.5397
	minimum = 7
	maximum = 32
Network latency average = 20.5397
	minimum = 7
	maximum = 32
Slowest packet = 4136
Flit latency average = 20.6912
	minimum = 7
	maximum = 33
Slowest flit = 4120
Fragmentation average = 0
	minimum = 0
	maximum = 0
Injected packet rate average = 0.008375
	minimum = 0.004 (at node 6)
	maximum = 0.014 (at node 10)
Accepted packet rate average = 0.0085
	minimum = 0 (at node 0)
	maximum = 0.136 (at node 11)
Injected flit rate average = 0.008375
	minimum = 0.004 (at node 6)
	maximum = 0.014 (at node 10)
Accepted flit rate average= 0.0085
	minimum = 0 (at node 0)
	maximum = 0.136 (at node 11)
Injected packet length average = 1
Accepted packet length average = 1
Total in-flight flits = 4 (4 measured)
latency change    = 0.0190535
throughput change = 0.279412
Class 0:
Packet latency average = 20.5103
	minimum = 7
	maximum = 34
Network latency average = 20.5103
	minimum = 7
	maximum = 34
Slowest packet = 4204
Flit latency average = 20.58
	minimum = 7
	maximum = 34
Slowest flit = 4204
Fragmentation average = 0
	minimum = 0
	maximum = 0
Injected packet rate average = 0.00925
	minimum = 0.004 (at node 7)
	maximum = 0.015 (at node 8)
Accepted packet rate average = 0.009375
	minimum = 0 (at node 0)
	maximum = 0.15 (at node 11)
Injected flit rate average = 0.00925
	minimum = 0.004 (at node 7)
	maximum = 0.015 (at node 8)
Accepted flit rate average= 0.009375
	minimum = 0 (at node 0)
	maximum = 0.15 (at node 11)
Injected packet length average = 1
Accepted packet length average = 1
Total in-flight flits = 3 (3 measured)
latency change    = 0.00143039
throughput change = 0.0933333
Class 0:
Packet latency average = 20.6504
	minimum = 7
	maximum = 38
Network latency average = 20.6504
	minimum = 7
	maximum = 38
Slowest packet = 4270
Flit latency average = 20.6926
	minimum = 7
	maximum = 38
Slowest flit = 4270
Fragmentation average = 0
	minimum = 0
	maximum = 0
Injected packet rate average = 0.00966667
	minimum = 0.00533333 (at node 7)
	maximum = 0.016 (at node 8)
Accepted packet rate average = 0.009625
	minimum = 0 (at node 0)
	maximum = 0.154 (at node 11)
Injected flit rate average = 0.00966667
	minimum = 0.00533333 (at node 7)
	maximum = 0.016 (at node 8)
Accepted flit rate average= 0.009625
	minimum = 0 (at node 0)
	maximum = 0.154 (at node 11)
Injected packet length average = 1
Accepted packet length average = 1
Total in-flight flits = 6 (6 measured)
latency change    = 0.00678424
throughput change = 0.025974
Class 0:
Packet latency average = 20.6677
	minimum = 7
	maximum = 38
Network latency average = 20.6677
	minimum = 7
	maximum = 38
Slowest packet = 4270
Flit latency average = 20.6984
	minimum = 7
	maximum = 38
Slowest flit = 4270
Fragmentation average = 0
	minimum = 0
	maximum = 0
Injected packet rate average = 0.0096875
	minimum = 0.006 (at node 7)
	maximum = 0.0135 (at node 8)
Accepted packet rate average = 0.00984375
	minimum = 0 (at node 0)
	maximum = 0.1575 (at node 11)
Injected flit rate average = 0.0096875
	minimum = 0.006 (at node 7)
	maximum = 0.0135 (at node 8)
Accepted flit rate average= 0.00984375
	minimum = 0 (at node 0)
	maximum = 0.1575 (at node 11)
Injected packet length average = 1
Accepted packet length average = 1
Total in-flight flits = 0 (0 measured)
latency change    = 0.000837027
throughput change = 0.0222222
Class 0:
Packet latency average = 21.3224
	minimum = 7
	maximum = 53
Network latency average = 21.3224
	minimum = 7
	maximum = 53
Slowest packet = 4467
Flit latency average = 21.3383
	minimum = 7
	maximum = 53
Slowest flit = 4467
Fragmentation average = 0
	minimum = 0
	maximum = 0
Injected packet rate average = 0.010075
	minimum = 0.0064 (at node 7)
	maximum = 0.016 (at node 8)
Accepted packet rate average = 0.01005
	minimum = 0 (at node 0)
	maximum = 0.1608 (at node 11)
Injected flit rate average = 0.010075
	minimum = 0.0064 (at node 7)
	maximum = 0.016 (at node 8)
Accepted flit rate average= 0.01005
	minimum = 0 (at node 0)
	maximum = 0.1608 (at node 11)
Injected packet length average = 1
Accepted packet length average = 1
Total in-flight flits = 6 (6 measured)
latency change    = 0.0307037
throughput change = 0.0205224
Draining all recorded packets ...
Draining remaining packets ...
Time taken is 4037 cycles
Class 0:
Packet latency average = 20.3472
	minimum = 7
	maximum = 40
Network latency average = 20.3472
	minimum = 7
	maximum = 40
Slowest packet = 4578
Flit latency average = 20.3472
	minimum = 7
	maximum = 40
Slowest flit = 4578
Fragmentation average = 0
	minimum = 0
	maximum = 0
Injected packet rate average = 0.0095
	minimum = 0.004 (at node 2)
	maximum = 0.02 (at node 5)
Accepted packet rate average = 0.009
	minimum = 0 (at node 0)
	maximum = 0.144 (at node 11)
Injected flit rate average = 0.0095
	minimum = 0.004 (at node 2)
	maximum = 0.02 (at node 5)
Accepted flit rate average= 0.009
	minimum = 0 (at node 0)
	maximum = 0.144 (at node 11)
Injected packet length average = 1
Accepted packet length average = 1
Total in-flight flits = 4 (0 measured)
latency change    = 1
throughput change = 1
Class 0:
Packet latency average = 19.988
	minimum = 7
	maximum = 46
Network latency average = 19.988
	minimum = 7
	maximum = 46
Slowest packet = 4612
Flit latency average = 19.988
	minimum = 7
	maximum = 46
Slowest flit = 4612
Fragmentation average = 0
	minimum = 0
	maximum = 0
Injected packet rate average = 0.0105625
	minimum = 0.005 (at node 14)
	maximum = 0.02 (at node 5)
Accepted packet rate average = 0.0104375
	minimum = 0 (at node 0)
	maximum = 0.167 (at node 11)
Injected flit rate average = 0.0105625
	minimum = 0.005 (at node 14)
	maximum = 0.02 (at node 5)
Accepted flit rate average= 0.0104375
	minimum = 0 (at node 0)
	maximum = 0.167 (at node 11)
Injected packet length average = 1
Accepted packet length average = 1
Total in-flight flits = 2 (0 measured)
latency change    = 0.0179707
throughput change = 0.137725
Class 0:
Packet latency average = 19.5072
	minimum = 7
	maximum = 33
Network latency average = 19.5072
	minimum = 7
	maximum = 33
Slowest packet = 4698
Flit latency average = 19.5072
	minimum = 7
	maximum = 33
Slowest flit = 4698
Fragmentation average = 0
	minimum = 0
	maximum = 0
Injected packet rate average = 0.008625
	minimum = 0.002 (at node 0)
	maximum = 0.014 (at node 2)
Accepted packet rate average = 0.008625
	minimum = 0 (at node 0)
	maximum = 0.138 (at node 11)
Injected flit rate average = 0.008625
	minimum = 0.002 (at node 0)
	maximum = 0.014 (at node 2)
Accepted flit rate average= 0.008625
	minimum = 0 (at node 0)
	maximum = 0.138 (at node 11)
Injected packet length average = 1
Accepted packet length average = 1
Total in-flight flits = 2 (0 measured)
latency change    = 0.0246461
throughput change = 0.210145
Warmed up ...Time used is 1500 cycles
Class 0:
Packet latency average = 19.6429
	minimum = 7
	maximum = 42
Network latency average = 19.6429
	minimum = 7
	maximum = 42
Slowest packet = 4816
Flit latency average = 19.7083
	minimum = 7
	maximum = 42
Slowest flit = 4816
Fragmentation average = 0
	minimum = 0
	maximum = 0
Injected packet rate average = 0.009
	minimum = 0.002 (at node 3)
	maximum = 0.018 (at node 15)
Accepted packet rate average = 0.009
	minimum = 0 (at node 0)
	maximum = 0.144 (at node 11)
Injected flit rate average = 0.009
	minimum = 0.002 (at node 3)
	maximum = 0.018 (at node 15)
Accepted flit rate average= 0.009
	minimum = 0 (at node 0)
	maximum = 0.144 (at node 11)
Injected packet length average = 1
Accepted packet length average = 1
Total in-flight flits = 2 (2 measured)
latency change    = 0.00690382
throughput change = 0.0416667
Class 0:
Packet latency average = 21.9119
	minimum = 7
	maximum = 60
Network latency average = 21.9119
	minimum = 7
	maximum = 60
Slowest packet = 4881
Flit latency average = 21.913
	minimum = 7
	maximum = 60
Slowest flit = 4881
Fragmentation average = 0
	minimum = 0
	maximum = 0
Injected packet rate average = 0.010125
	minimum = 0.004 (at node 9)
	maximum = 0.019 (at node 0)
Accepted packet rate average = 0.0100625
	minimum = 0 (at node 0)
	maximum = 0.161 (at node 11)
Injected flit rate average = 0.010125
	minimum = 0.004 (at node 9)
	maximum = 0.019 (at node 0)
Accepted flit rate average= 0.0100625
	minimum = 0 (at node 0)
	maximum = 0.161 (at node 11)
Injected packet length average = 1
Accepted packet length average = 1
Total in-flight flits = 3 (3 measured)
latency change    = 0.103555
throughput change = 0.10559
Class 0:
Packet latency average = 21.2574
	minimum = 7
	maximum = 60
Network latency average = 21.2574
	minimum = 7
	maximum = 60
Slowest packet = 4881
Flit latency average = 21.2636
	minimum = 7
	maximum = 60
Slowest flit = 4881
Fragmentation average = 0
	minimum = 0
	maximum = 0
Injected packet rate average = 0.00991667
	minimum = 0.006 (at node 3)
	maximum = 0.014 (at node 10)
Accepted packet rate average = 0.00995833
	minimum = 0 (at node 0)
	maximum = 0.159333 (at node 11)
Injected flit rate average = 0.00991667
	minimum = 0.006 (at node 3)
	maximum = 0.014 (at node 10)
Accepted flit rate average= 0.00995833
	minimum = 0 (at node 0)
	maximum = 0.159333 (at node 11)
Injected packet length average = 1
Accepted packet length average = 1
Total in-flight flits = 1 (1 measured)
latency change    = 0.0307924
throughput change = 0.0104603
Class 0:
Packet latency average = 21.1211
	minimum = 7
	maximum = 60
Network latency average = 21.1211
	minimum = 7
	maximum = 60
Slowest packet = 4881
Flit latency average = 21.1265
	minimum = 7
	maximum = 60
Slowest flit = 4881
Fragmentation average = 0
	minimum = 0
	maximum = 0
Injected packet rate average = 0.0101563
	minimum = 0.0075 (at node 6)
	maximum = 0.0145 (at node 15)
Accepted packet rate average = 0.010125
	minimum = 0 (at node 0)
	maximum = 0.162 (at node 11)
Injected flit rate average = 0.0101563
	minimum = 0.0075 (at node 6)
	maximum = 0.0145 (at node 15)
Accepted flit rate average= 0.010125
	minimum = 0 (at node 0)
	maximum = 0.162 (at node 11)
Injected packet length average = 1
Accepted packet length average = 1
Total in-flight flits = 3 (3 measured)
latency change    = 0.00645164
throughput change = 0.0164609
Class 0:
Packet latency average = 21.03
	minimum = 7
	maximum = 60
Network latency average = 21.03
	minimum = 7
	maximum = 60
Slowest packet = 4881
Flit latency average = 21.0348
	minimum = 7
	maximum = 60
Slowest flit = 4881
Fragmentation average = 0
	minimum = 0
	maximum = 0
Injected packet rate average = 0.01005
	minimum = 0.0076 (at node 7)
	maximum = 0.0136 (at node 15)
Accepted packet rate average = 0.01005
	minimum = 0 (at node 0)
	maximum = 0.1608 (at node 11)
Injected flit rate average = 0.01005
	minimum = 0.0076 (at node 7)
	maximum = 0.0136 (at node 15)
Accepted flit rate average= 0.01005
	minimum = 0 (at node 0)
	maximum = 0.1608 (at node 11)
Injected packet length average = 1
Accepted packet length average = 1
Total in-flight flits = 2 (2 measured)
latency change    = 0.00433276
throughput change = 0.00746269
Draining all recorded packets ...
Draining remaining packets ...
Time taken is 4034 cycles
Class 0:
Packet latency average = 19.5915
	minimum = 7
	maximum = 37
Network latency average = 19.5915
	minimum = 7
	maximum = 37
Slowest packet = 5238
Flit latency average = 19.5915
	minimum = 7
	maximum = 37
Slowest flit = 5238
Fragmentation average = 0
	minimum = 0
	maximum = 0
Injected packet rate average = 0.00925
	minimum = 0.004 (at node 5)
	maximum = 0.016 (at node 3)
Accepted packet rate average = 0.008875
	minimum = 0 (at node 0)
	maximum = 0.142 (at node 11)
Injected flit rate average = 0.00925
	minimum = 0.004 (at node 5)
	maximum = 0.016 (at node 3)
Accepted flit rate average= 0.008875
	minimum = 0 (at node 0)
	maximum = 0.142 (at node 11)
Injected packet length average = 1
Accepted packet length average = 1
Total in-flight flits = 3 (0 measured)
latency change    = 1
throughput change = 1
Class 0:
Packet latency average = 20.1582
	minimum = 7
	maximum = 41
Network latency average = 20.1582
	minimum = 7
	maximum = 41
Slowest packet = 5302
Flit latency average = 20.1582
	minimum = 7
	maximum = 41
Slowest flit = 5302
Fragmentation average = 0
	minimum = 0
	maximum = 0
Injected packet rate average = 0.0099375
	minimum = 0.005 (at node 5)
	maximum = 0.017 (at node 12)
Accepted packet rate average = 0.009875
	minimum = 0 (at node 0)
	maximum = 0.158 (at node 11)
Injected flit rate average = 0.0099375
	minimum = 0.005 (at node 5)
	maximum = 0.017 (at node 12)
Accepted flit rate average= 0.009875
	minimum = 0 (at node 0)
	maximum = 0.158 (at node 11)
Injected packet length average = 1
Accepted packet length average = 1
Total in-flight flits = 1 (0 measured)
latency change    = 0.0281115
throughput change = 0.101266
Class 0:
Packet latency average = 21.0137
	minimum = 7
	maximum = 41
Network latency average = 21.0137
	minimum = 7
	maximum = 41
Slowest packet = 5337
Flit latency average = 21.0137
	minimum = 7
	maximum = 41
Slowest flit = 5337
Fragmentation average = 0
	minimum = 0
	maximum = 0
Injected packet rate average = 0.009
	minimum = 0.004 (at node 5)
	maximum = 0.018 (at node 8)
Accepted packet rate average = 0.009125
	minimum = 0 (at node 0)
	maximum = 0.146 (at node 11)
Injected flit rate average = 0.009
	minimum = 0.004 (at node 5)
	maximum = 0.018 (at node 8)
Accepted flit rate average= 0.009125
	minimum = 0 (at node 0)
	maximum = 0.146 (at node 11)
Injected packet length average = 1
Accepted packet length average = 1
Total in-flight flits = 0 (0 measured)
latency change    = 0.0407101
throughput change = 0.0821918
Warmed up ...Time used is 1500 cycles
Class 0:
Packet latency average = 20
	minimum = 7
	maximum = 38
Network latency average = 20
	minimum = 7
	maximum = 38
Slowest packet = 5458
Flit latency average = 20
	minimum = 7
	maximum = 38
Slowest flit = 5458
Fragmentation average = 0
	minimum = 0
	maximum = 0
Injected packet rate average = 0.008375
	minimum = 0.004 (at node 2)
	maximum = 0.014 (at node 9)
Accepted packet rate average = 0.008
	minimum = 0 (at node 0)
	maximum = 0.128 (at node 11)
Injected flit rate average = 0.008375
	minimum = 0.004 (at node 2)
	maximum = 0.014 (at node 9)
Accepted flit rate average= 0.008
	minimum = 0 (at node 0)
	maximum = 0.128 (at node 11)
Injected packet length average = 1
Accepted packet length average = 1
Total in-flight flits = 3 (3 measured)
latency change    = 0.0506849
throughput change = 0.140625
Class 0:
Packet latency average = 20.6906
	minimum = 7
	maximum = 38
Network latency average = 20.6906
	minimum = 7
	maximum = 38
Slowest packet = 5458
Flit latency average = 20.6906
	minimum = 7
	maximum = 38
Slowest flit = 5458
Fragmentation average = 0
	minimum = 0
	maximum = 0
Injected packet rate average = 0.008875
	minimum = 0.004 (at node 11)
	maximum = 0.015 (at node 12)
Accepted packet rate average = 0.0086875
	minimum = 0 (at node 0)
	maximum = 0.139 (at node 11)
Injected flit rate average = 0.008875
	minimum = 0.004 (at node 11)
	maximum = 0.015 (at node 12)
Accepted flit rate average= 0.0086875
	minimum = 0 (at node 0)
	maximum = 0.139 (at node 11)
Injected packet length average = 1
Accepted packet length average = 1
Total in-flight flits = 3 (3 measured)
latency change    = 0.0333797
throughput change = 0.0791367
Class 0:
Packet latency average = 20.1627
	minimum = 7
	maximum = 38
Network latency average = 20.1627
	minimum = 7
	maximum = 38
Slowest packet = 5458
Flit latency average = 20.1627
	minimum = 7
	maximum = 38
Slowest flit = 5458
Fragmentation average = 0
	minimum = 0
	maximum = 0
Injected packet rate average = 0.00883333
	minimum = 0.004 (at node 0)
	maximum = 0.0133333 (at node 13)
Accepted packet rate average = 0.00870833
	minimum = 0 (at node 0)
	maximum = 0.139333 (at node 11)
Injected flit rate average = 0.00883333
	minimum = 0.004 (at node 0)
	maximum = 0.0133333 (at node 13)
Accepted flit rate average= 0.00870833
	minimum = 0 (at node 0)
	maximum = 0.139333 (at node 11)
Injected packet length average = 1
Accepted packet length average = 1
Total in-flight flits = 3 (3 measured)
latency change    = 0.0261854
throughput change = 0.00239234
Class 0:
Packet latency average = 19.9621
	minimum = 7
	maximum = 41
Network latency average = 19.9621
	minimum = 7
	maximum = 41
Slowest packet = 5625
Flit latency average = 19.9621
	minimum = 7
	maximum = 41
Slowest flit = 5625
Fragmentation average = 0
	minimum = 0
	maximum = 0
Injected packet rate average = 0.00921875
	minimum = 0.0055 (at node 0)
	maximum = 0.0135 (at node 6)
Accepted packet rate average = 0.0090625
	minimum = 0 (at node 0)
	maximum = 0.145 (at node 11)
Injected flit rate average = 0.00921875
	minimum = 0.0055 (at node 0)
	maximum = 0.0135 (at node 6)
Accepted flit rate average= 0.0090625
	minimum = 0 (at node 0)
	maximum = 0.145 (at node 11)
Injected packet length average = 1
Accepted packet length average = 1
Total in-flight flits = 5 (5 measured)
latency change    = 0.0100496
throughput change = 0.0390805
Class 0:
Packet latency average = 20.2742
	minimum = 7
	maximum = 41
Network latency average = 20.2742
	minimum = 7
	maximum = 41
Slowest packet = 5625
Flit latency average = 20.2742
	minimum = 7
	maximum = 41
Slowest flit = 5625
Fragmentation average = 0
	minimum = 0
	maximum = 0
Injected packet rate average = 0.00915
	minimum = 0.0056 (at node 11)
	maximum = 0.0132 (at node 13)
Accepted packet rate average = 0.009025
	minimum = 0 (at node 0)
	maximum = 0.1444 (at node 11)
Injected flit rate average = 0.00915
	minimum = 0.0056 (at node 11)
	maximum = 0.0132 (at node 13)
Accepted flit rate average= 0.009025
	minimum = 0 (at node 0)
	maximum = 0.1444 (at node 11)
Injected packet length average = 1
Accepted packet length average = 1
Total in-flight flits = 5 (5 measured)
latency change    = 0.0153973
throughput change = 0.00415512
Draining all recorded packets ...
Draining remaining packets ...
Time taken is 4034 cycles
Class 0:
Packet latency average = 20.9398
	minimum = 7
	maximum = 37
Network latency average = 20.9398
	minimum = 7
	maximum = 37
Slowest packet = 5837
Flit latency average = 20.9398
	minimum = 7
	maximum = 37
Slowest flit = 5837
Fragmentation average = 0
	minimum = 0
	maximum = 0
Injected packet rate average = 0.01075
	minimum = 0.004 (at node 7)
	maximum = 0.02 (at node 4)
Accepted packet rate average = 0.010375
	minimum = 0 (at node 0)
	maximum = 0.166 (at node 11)
Injected flit rate average = 0.01075
	minimum = 0.004 (at node 7)
	maximum = 0.02 (at node 4)
Accepted flit rate average= 0.010375
	minimum = 0 (at node 0)
	maximum = 0.166 (at node 11)
Injected packet length average = 1
Accepted packet length average = 1
Total in-flight flits = 3 (0 measured)
latency change    = 1
throughput change = 1
Class 0:
Packet latency average = 21.0903
	minimum = 7
	maximum = 39
Network latency average = 21.0903
	minimum = 7
	maximum = 39
Slowest packet = 5866
Flit latency average = 21.0903
	minimum = 7
	maximum = 39
Slowest flit = 5866
Fragmentation average = 0
	minimum = 0
	maximum = 0
Injected packet rate average = 0.009875
	minimum = 0.004 (at node 9)
	maximum = 0.015 (at node 12)
Accepted packet rate average = 0.0096875
	minimum = 0 (at node 0)
	maximum = 0.155 (at node 11)
Injected flit rate average = 0.009875
	minimum = 0.004 (at node 9)
	maximum = 0.015 (at node 12)
Accepted flit rate average= 0.0096875
	minimum = 0 (at node 0)
	maximum = 0.155 (at node 11)
Injected packet length average = 1
Accepted packet length average = 1
Total in-flight flits = 3 (0 measured)
latency change    = 0.00713899
throughput change = 0.0709677
Class 0:
Packet latency average = 21.4444
	minimum = 7
	maximum = 41
Network latency average = 21.4444
	minimum = 7
	maximum = 41
Slowest packet = 5985
Flit latency average = 21.4444
	minimum = 7
	maximum = 41
Slowest flit = 5985
Fragmentation average = 0
	minimum = 0
	maximum = 0
Injected packet rate average = 0.01025
	minimum = 0.002 (at node 7)
	maximum = 0.016 (at node 0)
Accepted packet rate average = 0.010125
	minimum = 0 (at node 0)
	maximum = 0.162 (at node 11)
Injected flit rate average = 0.01025
	minimum = 0.002 (at node 7)
	maximum = 0.016 (at node 0)
Accepted flit rate average= 0.010125
	minimum = 0 (at node 0)
	maximum = 0.162 (at node 11)
Injected packet length average = 1
Accepted packet length average = 1
Total in-flight flits = 4 (0 measured)
latency change    = 0.0165135
throughput change = 0.0432099
Warmed up ...Time used is 1500 cycles
Class 0:
Packet latency average = 18.4479
	minimum = 7
	maximum = 32
Network latency average = 18.4479
	minimum = 7
	maximum = 32
Slowest packet = 6083
Flit latency average = 18.62
	minimum = 7
	maximum = 32
Slowest flit = 6083
Fragmentation average = 0
	minimum = 0
	maximum = 0
Injected packet rate average = 0.012625
	minimum = 0.004 (at node 0)
	maximum = 0.022 (at node 11)
Accepted packet rate average = 0.0125
	minimum = 0 (at node 0)
	maximum = 0.2 (at node 11)
Injected flit rate average = 0.012625
	minimum = 0.004 (at node 0)
	maximum = 0.022 (at node 11)
Accepted flit rate average= 0.0125
	minimum = 0 (at node 0)
	maximum = 0.2 (at node 11)
Injected packet length average = 1
Accepted packet length average = 1
Total in-flight flits = 5 (5 measured)
latency change    = 0.162432
throughput change = 0.19
Class 0:
Packet latency average = 18.8908
	minimum = 7
	maximum = 34
Network latency average = 18.8908
	minimum = 7
	maximum = 34
Slowest packet = 6117
Flit latency average = 18.9775
	minimum = 7
	maximum = 34
Slowest flit = 6117
Fragmentation average = 0
	minimum = 0
	maximum = 0
Injected packet rate average = 0.011125
	minimum = 0.005 (at node 1)
	maximum = 0.017 (at node 6)
Accepted packet rate average = 0.011125
	minimum = 0 (at node 0)
	maximum = 0.178 (at node 11)
Injected flit rate average = 0.011125
	minimum = 0.005 (at node 1)
	maximum = 0.017 (at node 6)
Accepted flit rate average= 0.011125
	minimum = 0 (at node 0)
	maximum = 0.178 (at node 11)
Injected packet length average = 1
Accepted packet length average = 1
Total in-flight flits = 4 (4 measured)
latency change    = 0.0234446
throughput change = 0.123596
Class 0:
Packet latency average = 19
	minimum = 7
	maximum = 38
Network latency average = 19
	minimum = 7
	maximum = 38
Slowest packet = 6202
Flit latency average = 19.0602
	minimum = 7
	maximum = 38
Slowest flit = 6202
Fragmentation average = 0
	minimum = 0
	maximum = 0
Injected packet rate average = 0.0102917
	minimum = 0.006 (at node 13)
	maximum = 0.0166667 (at node 11)
Accepted packet rate average = 0.010375
	minimum = 0 (at node 0)
	maximum = 0.166 (at node 11)
Injected flit rate average = 0.0102917
	minimum = 0.006 (at node 13)
	maximum = 0.0166667 (at node 11)
Accepted flit rate average= 0.010375
	minimum = 0 (at node 0)
	maximum = 0.166 (at node 11)
Injected packet length average = 1
Accepted packet length average = 1
Total in-flight flits = 2 (2 measured)
latency change    = 0.00574713
throughput change = 0.0722892
Class 0:
Packet latency average = 19.4092
	minimum = 7
	maximum = 38
Network latency average = 19.4092
	minimum = 7
	maximum = 38
Slowest packet = 6202
Flit latency average = 19.4498
	minimum = 7
	maximum = 38
Slowest flit = 6202
Fragmentation average = 0
	minimum = 0
	maximum = 0
Injected packet rate average = 0.0101875
	minimum = 0.0065 (at node 13)
	maximum = 0.014 (at node 11)
Accepted packet rate average = 0.0102813
	minimum = 0 (at node 0)
	maximum = 0.1645 (at node 11)
Injected flit rate average = 0.0101875
	minimum = 0.0065 (at node 13)
	maximum = 0.014 (at node 11)
Accepted flit rate average= 0.0102813
	minimum = 0 (at node 0)
	maximum = 0.1645 (at node 11)
Injected packet length average = 1
Accepted packet length average = 1
Total in-flight flits = 1 (1 measured)
latency change    = 0.0210843
throughput change = 0.00911854
Class 0:
Packet latency average = 19.5981
	minimum = 7
	maximum = 38
Network latency average = 19.5981
	minimum = 7
	maximum = 38
Slowest packet = 6202
Flit latency average = 19.6283
	minimum = 7
	maximum = 38
Slowest flit = 6202
Fragmentation average = 0
	minimum = 0
	maximum = 0
Injected packet rate average = 0.010425
	minimum = 0.008 (at node 13)
	maximum = 0.0128 (at node 2)
Accepted packet rate average = 0.010425
	minimum = 0 (at node 0)
	maximum = 0.1668 (at node 11)
Injected flit rate average = 0.010425
	minimum = 0.008 (at node 13)
	maximum = 0.0128 (at node 2)
Accepted flit rate average= 0.010425
	minimum = 0 (at node 0)
	maximum = 0.1668 (at node 11)
Injected packet length average = 1
Accepted packet length average = 1
Total in-flight flits = 4 (4 measured)
latency change    = 0.00963525
throughput change = 0.013789
Class 0:
Packet latency average = 19.7323
	minimum = 7
	maximum = 38
Network latency average = 19.7323
	minimum = 7
	maximum = 38
Slowest packet = 6202
Flit latency average = 19.7565
	minimum = 7
	maximum = 38
Slowest flit = 6202
Fragmentation average = 0
	minimum = 0
	maximum = 0
Injected packet rate average = 0.0103333
	minimum = 0.00766667 (at node 5)
	maximum = 0.013 (at node 7)
Accepted packet rate average = 0.0103542
	minimum = 0 (at node 0)
	maximum = 0.165667 (at node 11)
Injected flit rate average = 0.0103333
	minimum = 0.00766667 (at node 5)
	maximum = 0.013 (at node 7)
Accepted flit rate average= 0.0103542
	minimum = 0 (at node 0)
	maximum = 0.165667 (at node 11)
Injected packet length average = 1
Accepted packet length average = 1
Total in-flight flits = 3 (3 measured)
latency change    = 0.00680047
throughput change = 0.00684105
Draining all recorded packets ...
Draining remaining packets ...
Time taken is 4544 cycles
Class 0:
Packet latency average = 20.1205
	minimum = 7
	maximum = 41
Network latency average = 20.1205
	minimum = 7
	maximum = 41
Slowest packet = 6542
Flit latency average = 20.1205
	minimum = 7
	maximum = 41
Slowest flit = 6542
Fragmentation average = 0
	minimum = 0
	maximum = 0
Injected packet rate average = 0.011
	minimum = 0.002 (at node 6)
	maximum = 0.02 (at node 2)
Accepted packet rate average = 0.010375
	minimum = 0 (at node 0)
	maximum = 0.166 (at node 11)
Injected flit rate average = 0.011
	minimum = 0.002 (at node 6)
	maximum = 0.02 (at node 2)
Accepted flit rate average= 0.010375
	minimum = 0 (at node 0)
	maximum = 0.166 (at node 11)
Injected packet length average = 1
Accepted packet length average = 1
Total in-flight flits = 5 (0 measured)
latency change    = 1
throughput change = 1
Class 0:
Packet latency average = 21
	minimum = 7
	maximum = 41
Network latency average = 21
	minimum = 7
	maximum = 41
Slowest packet = 6542
Flit latency average = 21
	minimum = 7
	maximum = 41
Slowest flit = 6542
Fragmentation average = 0
	minimum = 0
	maximum = 0
Injected packet rate average = 0.010625
	minimum = 0.005 (at node 6)
	maximum = 0.016 (at node 2)
Accepted packet rate average = 0.0105625
	minimum = 0 (at node 0)
	maximum = 0.169 (at node 11)
Injected flit rate average = 0.010625
	minimum = 0.005 (at node 6)
	maximum = 0.016 (at node 2)
Accepted flit rate average= 0.0105625
	minimum = 0 (at node 0)
	maximum = 0.169 (at node 11)
Injected packet length average = 1
Accepted packet length average = 1
Total in-flight flits = 1 (0 measured)
latency change    = 0.0418818
throughput change = 0.0177515
Class 0:
Packet latency average = 19.5676
	minimum = 7
	maximum = 32
Network latency average = 19.5676
	minimum = 7
	maximum = 32
Slowest packet = 6718
Flit latency average = 19.5676
	minimum = 7
	maximum = 32
Slowest flit = 6718
Fragmentation average = 0
	minimum = 0
	maximum = 0
Injected packet rate average = 0.009375
	minimum = 0.004 (at node 0)
	maximum = 0.014 (at node 12)
Accepted packet rate average = 0.00925
	minimum = 0 (at node 0)
	maximum = 0.148 (at node 11)
Injected flit rate average = 0.009375
	minimum = 0.004 (at node 0)
	maximum = 0.014 (at node 12)
Accepted flit rate average= 0.00925
	minimum = 0 (at node 0)
	maximum = 0.148 (at node 11)
Injected packet length average = 1
Accepted packet length average = 1
Total in-flight flits = 2 (0 measured)
latency change    = 0.0732044
throughput change = 0.141892
Warmed up ...Time used is 1500 cycles
Class 0:
Packet latency average = 20.1923
	minimum = 7
	maximum = 50
Network latency average = 20.1923
	minimum = 7
	maximum = 50
Slowest packet = 6774
Flit latency average = 20.2375
	minimum = 7
	maximum = 50
Slowest flit = 6774
Fragmentation average = 0
	minimum = 0
	maximum = 0
Injected packet rate average = 0.010375
	minimum = 0.002 (at node 13)
	maximum = 0.02 (at node 4)
Accepted packet rate average = 0.01
	minimum = 0 (at node 0)
	maximum = 0.16 (at node 11)
Injected flit rate average = 0.010375
	minimum = 0.002 (at node 13)
	maximum = 0.02 (at node 4)
Accepted flit rate average= 0.01
	minimum = 0 (at node 0)
	maximum = 0.16 (at node 11)
Injected packet length average = 1
Accepted packet length average = 1
Total in-flight flits = 5 (5 measured)
latency change    = 0.0309395
throughput change = 0.075
Class 0:
Packet latency average = 20.1118
	minimum = 7
	maximum = 50
Network latency average = 20.1118
	minimum = 7
	maximum = 50
Slowest packet = 6774
Flit latency average = 20.1364
	minimum = 7
	maximum = 50
Slowest flit = 6774
Fragmentation average = 0
	minimum = 0
	maximum = 0
Injected packet rate average = 0.00975
	minimum = 0.005 (at node 13)
	maximum = 0.014 (at node 4)
Accepted packet rate average = 0.009625
	minimum = 0 (at node 0)
	maximum = 0.154 (at node 11)
Injected flit rate average = 0.00975
	minimum = 0.005 (at node 13)
	maximum = 0.014 (at node 4)
Accepted flit rate average= 0.009625
	minimum = 0 (at node 0)
	maximum = 0.154 (at node 11)
Injected packet length average = 1
Accepted packet length average = 1
Total in-flight flits = 4 (4 measured)
latency change    = 0.00400091
throughput change = 0.038961
Class 0:
Packet latency average = 20.7143
	minimum = 7
	maximum = 50
Network latency average = 20.7143
	minimum = 7
	maximum = 50
Slowest packet = 6774
Flit latency average = 20.725
	minimum = 7
	maximum = 50
Slowest flit = 6774
Fragmentation average = 0
	minimum = 0
	maximum = 0
Injected packet rate average = 0.010125
	minimum = 0.00666667 (at node 2)
	maximum = 0.0153333 (at node 14)
Accepted packet rate average = 0.01
	minimum = 0 (at node 0)
	maximum = 0.16 (at node 11)
Injected flit rate average = 0.010125
	minimum = 0.00666667 (at node 2)
	maximum = 0.0153333 (at node 14)
Accepted flit rate average= 0.01
	minimum = 0 (at node 0)
	maximum = 0.16 (at node 11)
Injected packet length average = 1
Accepted packet length average = 1
Total in-flight flits = 5 (5 measured)
latency change    = 0.0290835
throughput change = 0.0375
Class 0:
Packet latency average = 20.6057
	minimum = 7
	maximum = 50
Network latency average = 20.6057
	minimum = 7
	maximum = 50
Slowest packet = 6774
Flit latency average = 20.6144
	minimum = 7
	maximum = 50
Slowest flit = 6774
Fragmentation average = 0
	minimum = 0
	maximum = 0
Injected packet rate average = 0.01
	minimum = 0.007 (at node 9)
	maximum = 0.0135 (at node 4)
Accepted packet rate average = 0.00996875
	minimum = 0 (at node 0)
	maximum = 0.1595 (at node 11)
Injected flit rate average = 0.01
	minimum = 0.007 (at node 9)
	maximum = 0.0135 (at node 4)
Accepted flit rate average= 0.00996875
	minimum = 0 (at node 0)
	maximum = 0.1595 (at node 11)
Injected packet length average = 1
Accepted packet length average = 1
Total in-flight flits = 3 (3 measured)
latency change    = 0.00527075
throughput change = 0.0031348
Draining all recorded packets ...
Draining remaining packets ...
Time taken is 3550 cycles
Class 0:
Packet latency average = 19.3947
	minimum = 7
	maximum = 36
Network latency average = 19.3947
	minimum = 7
	maximum = 36
Slowest packet = 7130
Flit latency average = 19.3947
	minimum = 7
	maximum = 36
Slowest flit = 7130
Fragmentation average = 0
	minimum = 0
	maximum = 0
Injected packet rate average = 0.0095
	minimum = 0.002 (at node 12)
	maximum = 0.018 (at node 14)
Accepted packet rate average = 0.0095
	minimum = 0 (at node 0)
	maximum = 0.152 (at node 11)
Injected flit rate average = 0.0095
	minimum = 0.002 (at node 12)
	maximum = 0.018 (at node 14)
Accepted flit rate average= 0.0095
	minimum = 0 (at node 0)
	maximum = 0.152 (at node 11)
Injected packet length average = 1
Accepted packet length average = 1
Total in-flight flits = 0 (0 measured)
latency change    = 1
throughput change = 1
Class 0:
Packet latency average = 19.8571
	minimum = 7
	maximum = 57
Network latency average = 19.8571
	minimum = 7
	maximum = 57
Slowest packet = 7242
Flit latency average = 19.8571
	minimum = 7
	maximum = 57
Slowest flit = 7242
Fragmentation average = 0
	minimum = 0
	maximum = 0
Injected packet rate average = 0.010625
	minimum = 0.003 (at node 12)
	maximum = 0.015 (at node 10)
Accepted packet rate average = 0.0105
	minimum = 0 (at node 0)
	maximum = 0.168 (at node 11)
Injected flit rate average = 0.010625
	minimum = 0.003 (at node 12)
	maximum = 0.015 (at node 10)
Accepted flit rate average= 0.0105
	minimum = 0 (at node 0)
	maximum = 0.168 (at node 11)
Injected packet length average = 1
Accepted packet length average = 1
Total in-flight flits = 2 (0 measured)
latency change    = 0.0232866
throughput change = 0.0952381
Class 0:
Packet latency average = 19.9038
	minimum = 7
	maximum = 45
Network latency average = 19.9038
	minimum = 7
	maximum = 45
Slowest packet = 7304
Flit latency average = 19.9038
	minimum = 7
	maximum = 45
Slowest flit = 7304
Fragmentation average = 0
	minimum = 0
	maximum = 0
Injected packet rate average = 0.013
	minimum = 0.004 (at node 12)
	maximum = 0.026 (at node 15)
Accepted packet rate average = 0.013
	minimum = 0 (at node 0)
	maximum = 0.208 (at node 11)
Injected flit rate average = 0.013
	minimum = 0.004 (at node 12)
	maximum = 0.026 (at node 15)
Accepted flit rate average= 0.013
	minimum = 0 (at node 0)
	maximum = 0.208 (at node 11)
Injected packet length average = 1
Accepted packet length average = 1
Total in-flight flits = 2 (0 measured)
latency change    = 0.00234645
throughput change = 0.192308
Warmed up ...Time used is 1500 cycles
Class 0:
Packet latency average = 20.4933
	minimum = 7
	maximum = 46
Network latency average = 20.4933
	minimum = 7
	maximum = 46
Slowest packet = 7397
Flit latency average = 20.5974
	minimum = 7
	maximum = 46
Slowest flit = 7397
Fragmentation average = 0
	minimum = 0
	maximum = 0
Injected packet rate average = 0.009625
	minimum = 0.002 (at node 8)
	maximum = 0.018 (at node 7)
Accepted packet rate average = 0.009625
	minimum = 0 (at node 0)
	maximum = 0.154 (at node 11)
Injected flit rate average = 0.009625
	minimum = 0.002 (at node 8)
	maximum = 0.018 (at node 7)
Accepted flit rate average= 0.009625
	minimum = 0 (at node 0)
	maximum = 0.154 (at node 11)
Injected packet length average = 1
Accepted packet length average = 1
Total in-flight flits = 2 (2 measured)
latency change    = 0.0287648
throughput change = 0.350649
Class 0:
Packet latency average = 19.979
	minimum = 7
	maximum = 46
Network latency average = 19.979
	minimum = 7
	maximum = 46
Slowest packet = 7397
Flit latency average = 20.0414
	minimum = 7
	maximum = 46
Slowest flit = 7397
Fragmentation average = 0
	minimum = 0
	maximum = 0
Injected packet rate average = 0.0091875
	minimum = 0.005 (at node 0)
	maximum = 0.013 (at node 7)
Accepted packet rate average = 0.0090625
	minimum = 0 (at node 0)
	maximum = 0.145 (at node 11)
Injected flit rate average = 0.0091875
	minimum = 0.005 (at node 0)
[...]
Injected packet length average = 1
Accepted packet length average = 1
Total in-flight flits = 2 (0 measured)
latency change    = 1
throughput change = 1
Class 0:
Packet latency average = 20.8658
	minimum = 7
	maximum = 38
Network latency average = 20.8658
	minimum = 7
	maximum = 38
Slowest packet = 31849
Flit latency average = 20.8658
	minimum = 7
	maximum = 38
Slowest flit = 31849
Fragmentation average = 0
	minimum = 0
	maximum = 0
Injected packet rate average = 0.0093125
	minimum = 0.004 (at node 15)
	maximum = 0.015 (at node 6)
Accepted packet rate average = 0.0093125
	minimum = 0 (at node 0)
	maximum = 0.149 (at node 11)
Injected flit rate average = 0.0093125
	minimum = 0.004 (at node 15)
	maximum = 0.015 (at node 6)
Accepted flit rate average= 0.0093125
	minimum = 0 (at node 0)
	maximum = 0.149 (at node 11)
Injected packet length average = 1
Accepted packet length average = 1
Total in-flight flits = 0 (0 measured)
latency change    = 0.0097155
throughput change = 0.0201342
Class 0:
Packet latency average = 19.2113
	minimum = 7
	maximum = 42
Network latency average = 19.2113
	minimum = 7
	maximum = 42
Slowest packet = 31923
Flit latency average = 19.2113
	minimum = 7
	maximum = 42
Slowest flit = 31923
Fragmentation average = 0
	minimum = 0
	maximum = 0
Injected packet rate average = 0.009
	minimum = 0.004 (at node 8)
	maximum = 0.014 (at node 3)
Accepted packet rate average = 0.008875
	minimum = 0 (at node 0)
	maximum = 0.142 (at node 11)
Injected flit rate average = 0.009
	minimum = 0.004 (at node 8)
	maximum = 0.014 (at node 3)
Accepted flit rate average= 0.008875
	minimum = 0 (at node 0)
	maximum = 0.142 (at node 11)
Injected packet length average = 1
Accepted packet length average = 1
Total in-flight flits = 1 (0 measured)
latency change    = 0.0861216
throughput change = 0.0492958
Warmed up ...Time used is 1500 cycles
Class 0:
Packet latency average = 20.6957
	minimum = 7
	maximum = 36
Network latency average = 20.6957
	minimum = 7
	maximum = 36
Slowest packet = 31971
Flit latency average = 20.5714
	minimum = 7
	maximum = 36
Slowest flit = 31971
Fragmentation average = 0
	minimum = 0
	maximum = 0
Injected packet rate average = 0.00875
	minimum = 0.004 (at node 3)
	maximum = 0.016 (at node 13)
Accepted packet rate average = 0.00875
	minimum = 0 (at node 0)
	maximum = 0.14 (at node 11)
Injected flit rate average = 0.00875
	minimum = 0.004 (at node 3)
	maximum = 0.016 (at node 13)
Accepted flit rate average= 0.00875
	minimum = 0 (at node 0)
	maximum = 0.14 (at node 11)
Injected packet length average = 1
Accepted packet length average = 1
Total in-flight flits = 1 (1 measured)
latency change    = 0.0717245
throughput change = 0.0142857
Class 0:
Packet latency average = 20.2483
	minimum = 7
	maximum = 41
Network latency average = 20.2483
	minimum = 7
	maximum = 41
Slowest packet = 32054
Flit latency average = 20.1933
	minimum = 7
	maximum = 41
Slowest flit = 32054
Fragmentation average = 0
	minimum = 0
	maximum = 0
Injected packet rate average = 0.00975
	minimum = 0.005 (at node 3)
	maximum = 0.013 (at node 10)
Accepted packet rate average = 0.009375
	minimum = 0 (at node 0)
	maximum = 0.15 (at node 11)
Injected flit rate average = 0.00975
	minimum = 0.005 (at node 3)
	maximum = 0.013 (at node 10)
Accepted flit rate average= 0.009375
	minimum = 0 (at node 0)
	maximum = 0.15 (at node 11)
Injected packet length average = 1
Accepted packet length average = 1
Total in-flight flits = 7 (7 measured)
latency change    = 0.0220922
throughput change = 0.0666667
Class 0:
Packet latency average = 20.1312
	minimum = 7
	maximum = 41
Network latency average = 20.1312
	minimum = 7
	maximum = 41
Slowest packet = 32054
Flit latency average = 20.0946
	minimum = 7
	maximum = 41
Slowest flit = 32054
Fragmentation average = 0
	minimum = 0
	maximum = 0
Injected packet rate average = 0.00933333
	minimum = 0.00666667 (at node 11)
	maximum = 0.012 (at node 10)
Accepted packet rate average = 0.00925
	minimum = 0 (at node 0)
	maximum = 0.148 (at node 11)
Injected flit rate average = 0.00933333
	minimum = 0.00666667 (at node 11)
	maximum = 0.012 (at node 10)
Accepted flit rate average= 0.00925
	minimum = 0 (at node 0)
	maximum = 0.148 (at node 11)
Injected packet length average = 1
Accepted packet length average = 1
Total in-flight flits = 3 (3 measured)
latency change    = 0.00581686
throughput change = 0.0135135
Class 0:
Packet latency average = 20.2092
	minimum = 7
	maximum = 41
Network latency average = 20.2092
	minimum = 7
	maximum = 41
Slowest packet = 32054
Flit latency average = 20.1824
	minimum = 7
	maximum = 41
Slowest flit = 32054
Fragmentation average = 0
	minimum = 0
	maximum = 0
Injected packet rate average = 0.00959375
	minimum = 0.007 (at node 3)
	maximum = 0.0135 (at node 10)
Accepted packet rate average = 0.00959375
	minimum = 0 (at node 0)
	maximum = 0.1535 (at node 11)
Injected flit rate average = 0.00959375
	minimum = 0.007 (at node 3)
	maximum = 0.0135 (at node 10)
Accepted flit rate average= 0.00959375
	minimum = 0 (at node 0)
	maximum = 0.1535 (at node 11)
Injected packet length average = 1
Accepted packet length average = 1
Total in-flight flits = 1 (1 measured)
latency change    = 0.00385611
throughput change = 0.0358306
Class 0:
Packet latency average = 20.2
	minimum = 7
	maximum = 41
Network latency average = 20.2
	minimum = 7
	maximum = 41
Slowest packet = 32054
Flit latency average = 20.1788
	minimum = 7
	maximum = 41
Slowest flit = 32054
Fragmentation average = 0
	minimum = 0
	maximum = 0
Injected packet rate average = 0.00975
	minimum = 0.008 (at node 1)
	maximum = 0.0124 (at node 2)
Accepted packet rate average = 0.00965
	minimum = 0 (at node 0)
	maximum = 0.1544 (at node 11)
Injected flit rate average = 0.00975
	minimum = 0.008 (at node 1)
	maximum = 0.0124 (at node 2)
Accepted flit rate average= 0.00965
	minimum = 0 (at node 0)
	maximum = 0.1544 (at node 11)
Injected packet length average = 1
Accepted packet length average = 1
Total in-flight flits = 5 (5 measured)
latency change    = 0.000452986
throughput change = 0.00582902
Draining all recorded packets ...
Draining remaining packets ...
Time taken is 4037 cycles
Class 0:
Packet latency average = 21.3521
	minimum = 7
	maximum = 32
Network latency average = 21.3521
	minimum = 7
	maximum = 32
Slowest packet = 32353
Flit latency average = 21.3521
	minimum = 7
	maximum = 32
Slowest flit = 32353
Fragmentation average = 0
	minimum = 0
	maximum = 0
Injected packet rate average = 0.009375
	minimum = 0.002 (at node 3)
	maximum = 0.024 (at node 8)
Accepted packet rate average = 0.008875
	minimum = 0 (at node 0)
	maximum = 0.142 (at node 11)
Injected flit rate average = 0.009375
	minimum = 0.002 (at node 3)
	maximum = 0.024 (at node 8)
Accepted flit rate average= 0.008875
	minimum = 0 (at node 0)
	maximum = 0.142 (at node 11)
Injected packet length average = 1
Accepted packet length average = 1
Total in-flight flits = 4 (0 measured)
latency change    = 1
throughput change = 1
Class 0:
Packet latency average = 20.2409
	minimum = 7
	maximum = 32
Network latency average = 20.2409
	minimum = 7
	maximum = 32
Slowest packet = 32353
Flit latency average = 20.2409
	minimum = 7
	maximum = 32
Slowest flit = 32353
Fragmentation average = 0
	minimum = 0
	maximum = 0
Injected packet rate average = 0.0088125
	minimum = 0.005 (at node 0)
	maximum = 0.018 (at node 5)
Accepted packet rate average = 0.0085625
	minimum = 0 (at node 0)
	maximum = 0.137 (at node 11)
Injected flit rate average = 0.0088125
	minimum = 0.005 (at node 0)
	maximum = 0.018 (at node 5)
Accepted flit rate average= 0.0085625
	minimum = 0 (at node 0)
	maximum = 0.137 (at node 11)
Injected packet length average = 1
Accepted packet length average = 1
Total in-flight flits = 4 (0 measured)
latency change    = 0.0549006
throughput change = 0.0364964
Class 0:
Packet latency average = 20.6222
	minimum = 7
	maximum = 38
Network latency average = 20.6222
	minimum = 7
	maximum = 38
Slowest packet = 32477
Flit latency average = 20.6222
	minimum = 7
	maximum = 38
Slowest flit = 32477
Fragmentation average = 0
	minimum = 0
	maximum = 0
Injected packet rate average = 0.010875
	minimum = 0.004 (at node 1)
	maximum = 0.018 (at node 6)
Accepted packet rate average = 0.01125
	minimum = 0 (at node 0)
	maximum = 0.18 (at node 11)
Injected flit rate average = 0.010875
	minimum = 0.004 (at node 1)
	maximum = 0.018 (at node 6)
Accepted flit rate average= 0.01125
	minimum = 0 (at node 0)
	maximum = 0.18 (at node 11)
Injected packet length average = 1
Accepted packet length average = 1
Total in-flight flits = 1 (0 measured)
latency change    = 0.018492
throughput change = 0.238889
Warmed up ...Time used is 1500 cycles
Class 0:
Packet latency average = 20.3333
	minimum = 7
	maximum = 39
Network latency average = 20.3333
	minimum = 7
	maximum = 39
Slowest packet = 32608
Flit latency average = 20.2941
	minimum = 7
	maximum = 39
Slowest flit = 32608
Fragmentation average = 0
	minimum = 0
	maximum = 0
Injected packet rate average = 0.01125
	minimum = 0.002 (at node 7)
	maximum = 0.02 (at node 2)
Accepted packet rate average = 0.010625
	minimum = 0 (at node 0)
	maximum = 0.17 (at node 11)
Injected flit rate average = 0.01125
	minimum = 0.002 (at node 7)
	maximum = 0.02 (at node 2)
Accepted flit rate average= 0.010625
	minimum = 0 (at node 0)
	maximum = 0.17 (at node 11)
Injected packet length average = 1
Accepted packet length average = 1
Total in-flight flits = 6 (6 measured)
latency change    = 0.0142077
throughput change = 0.0588235
Class 0:
Packet latency average = 20.3522
	minimum = 7
	maximum = 39
Network latency average = 20.3522
	minimum = 7
	maximum = 39
Slowest packet = 32608
Flit latency average = 20.3313
	minimum = 7
	maximum = 39
Slowest flit = 32608
Fragmentation average = 0
	minimum = 0
	maximum = 0
Injected packet rate average = 0.0100625
	minimum = 0.005 (at node 6)
	maximum = 0.016 (at node 2)
Accepted packet rate average = 0.01
	minimum = 0 (at node 0)
	maximum = 0.16 (at node 11)
Injected flit rate average = 0.0100625
	minimum = 0.005 (at node 6)
	maximum = 0.016 (at node 2)
Accepted flit rate average= 0.01
	minimum = 0 (at node 0)
	maximum = 0.16 (at node 11)
Injected packet length average = 1
Accepted packet length average = 1
Total in-flight flits = 2 (2 measured)
latency change    = 0.00092707
throughput change = 0.0625
Class 0:
Packet latency average = 20.6332
	minimum = 7
	maximum = 40
Network latency average = 20.6332
	minimum = 7
	maximum = 40
Slowest packet = 32719
Flit latency average = 20.6174
	minimum = 7
	maximum = 40
Slowest flit = 32719
Fragmentation average = 0
	minimum = 0
	maximum = 0
Injected packet rate average = 0.00966667
	minimum = 0.00533333 (at node 6)
	maximum = 0.0146667 (at node 4)
Accepted packet rate average = 0.00958333
	minimum = 0 (at node 0)
	maximum = 0.153333 (at node 11)
Injected flit rate average = 0.00966667
	minimum = 0.00533333 (at node 6)
	maximum = 0.0146667 (at node 4)
Accepted flit rate average= 0.00958333
	minimum = 0 (at node 0)
	maximum = 0.153333 (at node 11)
Injected packet length average = 1
Accepted packet length average = 1
Total in-flight flits = 3 (3 measured)
latency change    = 0.0136182
throughput change = 0.0434783
Class 0:
Packet latency average = 20.4434
	minimum = 7
	maximum = 40
Network latency average = 20.4434
	minimum = 7
	maximum = 40
Slowest packet = 32719
Flit latency average = 20.4323
	minimum = 7
	maximum = 40
Slowest flit = 32719
Fragmentation average = 0
	minimum = 0
	maximum = 0
Injected packet rate average = 0.00971875
	minimum = 0.0065 (at node 6)
	maximum = 0.0135 (at node 2)
Accepted packet rate average = 0.0096875
	minimum = 0 (at node 0)
	maximum = 0.155 (at node 11)
Injected flit rate average = 0.00971875
	minimum = 0.0065 (at node 6)
	maximum = 0.0135 (at node 2)
Accepted flit rate average= 0.0096875
	minimum = 0 (at node 0)
	maximum = 0.155 (at node 11)
Injected packet length average = 1
Accepted packet length average = 1
Total in-flight flits = 2 (2 measured)
latency change    = 0.00928527
throughput change = 0.0107527
Class 0:
Packet latency average = 20.0582
	minimum = 7
	maximum = 40
Network latency average = 20.0582
	minimum = 7
	maximum = 40
Slowest packet = 32719
Flit latency average = 20.0505
	minimum = 7
	maximum = 40
Slowest flit = 32719
Fragmentation average = 0
	minimum = 0
	maximum = 0
Injected packet rate average = 0.009975
	minimum = 0.006 (at node 6)
	maximum = 0.0132 (at node 2)
Accepted packet rate average = 0.0099
	minimum = 0 (at node 0)
	maximum = 0.1584 (at node 11)
Injected flit rate average = 0.009975
	minimum = 0.006 (at node 6)
	maximum = 0.0132 (at node 2)
Accepted flit rate average= 0.0099
	minimum = 0 (at node 0)
	maximum = 0.1584 (at node 11)
Injected packet length average = 1
Accepted packet length average = 1
Total in-flight flits = 4 (4 measured)
latency change    = 0.019201
throughput change = 0.0214646
Draining all recorded packets ...
Draining remaining packets ...
Time taken is 4038 cycles
Class 0:
Packet latency average = 17.9552
	minimum = 7
	maximum = 32
Network latency average = 17.9552
	minimum = 7
	maximum = 32
Slowest packet = 32959
Flit latency average = 17.9552
	minimum = 7
	maximum = 32
Slowest flit = 32959
Fragmentation average = 0
	minimum = 0
	maximum = 0
Injected packet rate average = 0.008875
	minimum = 0.004 (at node 2)
	maximum = 0.02 (at node 11)
Accepted packet rate average = 0.008375
	minimum = 0 (at node 0)
	maximum = 0.134 (at node 11)
Injected flit rate average = 0.008875
	minimum = 0.004 (at node 2)
	maximum = 0.02 (at node 11)
Accepted flit rate average= 0.008375
	minimum = 0 (at node 0)
	maximum = 0.134 (at node 11)
Injected packet length average = 1
Accepted packet length average = 1
Total in-flight flits = 4 (0 measured)
latency change    = 1
throughput change = 1
Class 0:
Packet latency average = 18.9927
	minimum = 7
	maximum = 34
Network latency average = 18.9927
	minimum = 7
	maximum = 34
Slowest packet = 33064
Flit latency average = 18.9927
	minimum = 7
	maximum = 34
Slowest flit = 33064
Fragmentation average = 0
	minimum = 0
	maximum = 0
Injected packet rate average = 0.0086875
	minimum = 0.006 (at node 5)
	maximum = 0.015 (at node 11)
Accepted packet rate average = 0.0085625
	minimum = 0 (at node 0)
	maximum = 0.137 (at node 11)
Injected flit rate average = 0.0086875
	minimum = 0.006 (at node 5)
	maximum = 0.015 (at node 11)
Accepted flit rate average= 0.0085625
	minimum = 0 (at node 0)
	maximum = 0.137 (at node 11)
Injected packet length average = 1
Accepted packet length average = 1
Total in-flight flits = 2 (0 measured)
latency change    = 0.054625
throughput change = 0.0218978
Class 0:
Packet latency average = 22
	minimum = 7
	maximum = 49
Network latency average = 22
	minimum = 7
	maximum = 49
Slowest packet = 33110
Flit latency average = 22
	minimum = 7
	maximum = 49
Slowest flit = 33110
Fragmentation average = 0
	minimum = 0
	maximum = 0
Injected packet rate average = 0.009375
	minimum = 0.004 (at node 6)
	maximum = 0.02 (at node 10)
Accepted packet rate average = 0.009125
	minimum = 0 (at node 0)
	maximum = 0.146 (at node 11)
Injected flit rate average = 0.009375
	minimum = 0.004 (at node 6)
	maximum = 0.02 (at node 10)
Accepted flit rate average= 0.009125
	minimum = 0 (at node 0)
	maximum = 0.146 (at node 11)
Injected packet length average = 1
Accepted packet length average = 1
Total in-flight flits = 4 (0 measured)
latency change    = 0.136695
throughput change = 0.0616438
Warmed up ...Time used is 1500 cycles
Class 0:
Packet latency average = 20.5921
	minimum = 7
	maximum = 44
Network latency average = 20.5921
	minimum = 7
	maximum = 44
Slowest packet = 33188
Flit latency average = 20.55
	minimum = 7
	maximum = 44
Slowest flit = 33188
Fragmentation average = 0
	minimum = 0
	maximum = 0
Injected packet rate average = 0.01
	minimum = 0.004 (at node 0)
	maximum = 0.016 (at node 4)
Accepted packet rate average = 0.01
	minimum = 0 (at node 0)
	maximum = 0.16 (at node 11)
Injected flit rate average = 0.01
	minimum = 0.004 (at node 0)
	maximum = 0.016 (at node 4)
Accepted flit rate average= 0.01
	minimum = 0 (at node 0)
	maximum = 0.16 (at node 11)
Injected packet length average = 1
Accepted packet length average = 1
Total in-flight flits = 4 (4 measured)
latency change    = 0.0683706
throughput change = 0.0875
Class 0:
Packet latency average = 19.8389
	minimum = 7
	maximum = 44
Network latency average = 19.8389
	minimum = 7
	maximum = 44
Slowest packet = 33188
Flit latency average = 19.8366
	minimum = 7
	maximum = 44
Slowest flit = 33188
Fragmentation average = 0
	minimum = 0
	maximum = 0
Injected packet rate average = 0.0094375
	minimum = 0.003 (at node 0)
	maximum = 0.012 (at node 4)
Accepted packet rate average = 0.0095625
	minimum = 0 (at node 0)
	maximum = 0.153 (at node 11)
Injected flit rate average = 0.0094375
	minimum = 0.003 (at node 0)
	maximum = 0.012 (at node 4)
Accepted flit rate average= 0.0095625
	minimum = 0 (at node 0)
	maximum = 0.153 (at node 11)
Injected packet length average = 1
Accepted packet length average = 1
Total in-flight flits = 2 (2 measured)
latency change    = 0.0379647
throughput change = 0.0457516
Class 0:
Packet latency average = 19.2818
	minimum = 7
	maximum = 44
Network latency average = 19.2818
	minimum = 7
	maximum = 44
Slowest packet = 33188
Flit latency average = 19.2902
	minimum = 7
	maximum = 44
Slowest flit = 33188
Fragmentation average = 0
	minimum = 0
	maximum = 0
Injected packet rate average = 0.00925
	minimum = 0.00466667 (at node 0)
	maximum = 0.012 (at node 3)
Accepted packet rate average = 0.00933333
	minimum = 0 (at node 0)
	maximum = 0.149333 (at node 11)
Injected flit rate average = 0.00925
	minimum = 0.00466667 (at node 0)
	maximum = 0.012 (at node 3)
Accepted flit rate average= 0.00933333
	minimum = 0 (at node 0)
	maximum = 0.149333 (at node 11)
Injected packet length average = 1
Accepted packet length average = 1
Total in-flight flits = 2 (2 measured)
latency change    = 0.0288929
throughput change = 0.0245536
Class 0:
Packet latency average = 19.7115
	minimum = 7
	maximum = 44
Network latency average = 19.7115
	minimum = 7
	maximum = 44
Slowest packet = 33188
Flit latency average = 19.712
	minimum = 7
	maximum = 44
Slowest flit = 33188
Fragmentation average = 0
	minimum = 0
	maximum = 0
Injected packet rate average = 0.009625
	minimum = 0.006 (at node 0)
	maximum = 0.0135 (at node 7)
Accepted packet rate average = 0.00965625
	minimum = 0 (at node 0)
	maximum = 0.1545 (at node 11)
Injected flit rate average = 0.009625
	minimum = 0.006 (at node 0)
	maximum = 0.0135 (at node 7)
Accepted flit rate average= 0.00965625
	minimum = 0 (at node 0)
	maximum = 0.1545 (at node 11)
Injected packet length average = 1
Accepted packet length average = 1
Total in-flight flits = 3 (3 measured)
latency change    = 0.0217973
throughput change = 0.0334412
Draining all recorded packets ...
Draining remaining packets ...
Time taken is 3544 cycles
====== Overall Traffic Statistics ======
====== Traffic class 0 ======
Packet latency average = 20.5057 (50 samples)
	minimum = 7 (50 samples)
	maximum = 51.72 (50 samples)
Network latency average = 20.5057 (50 samples)
	minimum = 7 (50 samples)
	maximum = 51.72 (50 samples)
Flit latency average = 20.5334 (50 samples)
	minimum = 7 (50 samples)
	maximum = 51.9 (50 samples)
Fragmentation average = 0 (50 samples)
	minimum = 0 (50 samples)
	maximum = 0 (50 samples)
Injected packet rate average = 0.00993862 (50 samples)
	minimum = 0.00668133 (50 samples)
	maximum = 0.0137481 (50 samples)
Accepted packet rate average = 0.00993602 (50 samples)
	minimum = 0 (50 samples)
	maximum = 0.158976 (50 samples)
Injected flit rate average = 0.00993862 (50 samples)
	minimum = 0.00668133 (50 samples)
	maximum = 0.0137481 (50 samples)
Accepted flit rate average = 0.00993602 (50 samples)
	minimum = 0 (50 samples)
	maximum = 0.158976 (50 samples)
Injected packet size average = 1 (50 samples)
Accepted packet size average = 1 (50 samples)
Hops average = 3.49169 (50 samples)
Total run time 1.10434
