BEGIN Configuration File: /tmp/tmpwa47mws_.cfg
topology = mesh;
k = 4;
n = 2;
routing_function = gnn_port_score_route_4x4;
num_vcs = 4;
vc_buf_size = 4;
wait_for_tail_credit = 1;
vc_allocator = islip;
sw_allocator = islip;
alloc_iters = 1;
credit_delay = 2;
routing_delay = 1;
vc_alloc_delay = 1;
sw_alloc_delay = 1;
input_speedup = 2;
output_speedup = 1;
internal_speedup = 1.0;
traffic = uniform;
packet_size = 1;
sim_type = latency;
injection_rate = 0.05;
warmup_periods = 3;
sample_period = 500;
sim_count = 50;
seed = 1;
link_failures = 1;
fail_seed = 202;

END Configuration File: /tmp/tmpwa47mws_.cfg
failure at node 4, channel 2 (1/1)
Class 0:
Packet latency average = 20.1733
	minimum = 7
	maximum = 47
Network latency average = 20.1733
	minimum = 7
	maximum = 47
Slowest packet = 293
Flit latency average = 20.1733
	minimum = 7
	maximum = 47
Slowest flit = 293
Fragmentation average = 0
	minimum = 0
	maximum = 0
Injected packet rate average = 0.049125
	minimum = 0.032 (at node 9)
	maximum = 0.074 (at node 1)
Accepted packet rate average = 0.046875
	minimum = 0.03 (at node 6)
	maximum = 0.062 (at node 9)
Injected flit rate average = 0.049125
	minimum = 0.032 (at node 9)
	maximum = 0.074 (at node 1)
Accepted flit rate average= 0.046875
	minimum = 0.03 (at node 6)
	maximum = 0.062 (at node 9)
Injected packet length average = 1
Accepted packet length average = 1
Total in-flight flits = 18 (0 measured)
latency change    = 1
throughput change = 1
Class 0:
Packet latency average = 20.0917
	minimum = 7
	maximum = 49
Network latency average = 20.0917
	minimum = 7
	maximum = 49
Slowest packet = 449
Flit latency average = 20.0917
	minimum = 7
	maximum = 49
Slowest flit = 449
Fragmentation average = 0
	minimum = 0
	maximum = 0
Injected packet rate average = 0.0505
	minimum = 0.038 (at node 9)
	maximum = 0.073 (at node 1)
Accepted packet rate average = 0.04975
	minimum = 0.032 (at node 6)
	maximum = 0.061 (at node 9)
Injected flit rate average = 0.0505
	minimum = 0.038 (at node 9)
	maximum = 0.073 (at node 1)
Accepted flit rate average= 0.04975
	minimum = 0.032 (at node 6)
	maximum = 0.061 (at node 9)
Injected packet length average = 1
Accepted packet length average = 1
Total in-flight flits = 12 (0 measured)
latency change    = 0.00406261
throughput change = 0.0577889
Class 0:
Packet latency average = 19.3627
	minimum = 7
	maximum = 38
Network latency average = 19.3627
	minimum = 7
	maximum = 38
Slowest packet = 1011
Flit latency average = 19.3627
	minimum = 7
	maximum = 38
Slowest flit = 1011
Fragmentation average = 0
	minimum = 0
	maximum = 0
Injected packet rate average = 0.05
	minimum = 0.03 (at node 10)
	maximum = 0.068 (at node 12)
Accepted packet rate average = 0.049625
	minimum = 0.034 (at node 6)
	maximum = 0.064 (at node 9)
Injected flit rate average = 0.05
	minimum = 0.03 (at node 10)
	maximum = 0.068 (at node 12)
Accepted flit rate average= 0.049625
	minimum = 0.034 (at node 6)
	maximum = 0.064 (at node 9)
Injected packet length average = 1
Accepted packet length average = 1
Total in-flight flits = 15 (0 measured)
latency change    = 0.0376491
throughput change = 0.00251889
Warmed up ...Time used is 1500 cycles
Class 0:
Packet latency average = 19.3163
	minimum = 7
	maximum = 41
Network latency average = 19.3163
	minimum = 7
	maximum = 41
Slowest packet = 1245
Flit latency average = 19.4319
	minimum = 7
	maximum = 41
Slowest flit = 1245
Fragmentation average = 0
	minimum = 0
	maximum = 0
Injected packet rate average = 0.052875
	minimum = 0.036 (at node 11)
	maximum = 0.068 (at node 15)
Accepted packet rate average = 0.05325
	minimum = 0.026 (at node 7)
	maximum = 0.07 (at node 1)
Injected flit rate average = 0.052875
	minimum = 0.036 (at node 11)
	maximum = 0.068 (at node 15)
Accepted flit rate average= 0.05325
	minimum = 0.026 (at node 7)
	maximum = 0.07 (at node 1)
Injected packet length average = 1
Accepted packet length average = 1
Total in-flight flits = 12 (12 measured)
latency change    = 0.00240308
throughput change = 0.0680751
Class 0:
Packet latency average = 19.8042
	minimum = 7
	maximum = 49
Network latency average = 19.8042
	minimum = 7
	maximum = 49
Slowest packet = 1677
Flit latency average = 19.8525
	minimum = 7
	maximum = 49
Slowest flit = 1677
Fragmentation average = 0
	minimum = 0
	maximum = 0
Injected packet rate average = 0.054125
	minimum = 0.04 (at node 11)
	maximum = 0.067 (at node 7)
Accepted packet rate average = 0.05425
	minimum = 0.045 (at node 7)
	maximum = 0.063 (at node 1)
Injected flit rate average = 0.054125
	minimum = 0.04 (at node 11)
	maximum = 0.067 (at node 7)
Accepted flit rate average= 0.05425
	minimum = 0.045 (at node 7)
	maximum = 0.063 (at node 1)
Injected packet length average = 1
Accepted packet length average = 1
Total in-flight flits = 13 (13 measured)
latency change    = 0.0246371
throughput change = 0.0184332
Class 0:
Packet latency average = 19.7018
	minimum = 7
	maximum = 49
Network latency average = 19.7018
	minimum = 7
	maximum = 49
Slowest packet = 1677
Flit latency average = 19.7362
	minimum = 7
	maximum = 49
Slowest flit = 1677
Fragmentation average = 0
	minimum = 0
	maximum = 0
Injected packet rate average = 0.0525833
	minimum = 0.0413333 (at node 0)
	maximum = 0.0606667 (at node 7)
Accepted packet rate average = 0.05275
	minimum = 0.042 (at node 12)
	maximum = 0.0626667 (at node 14)
Injected flit rate average = 0.0525833
	minimum = 0.0413333 (at node 0)
	maximum = 0.0606667 (at node 7)
Accepted flit rate average= 0.05275
	minimum = 0.042 (at node 12)
	maximum = 0.0626667 (at node 14)
Injected packet length average = 1
Accepted packet length average = 1
Total in-flight flits = 11 (11 measured)
latency change    = 0.00519656
throughput change = 0.028436
Class 0:
Packet latency average = 19.79
	minimum = 7
	maximum = 49
Network latency average = 19.79
	minimum = 7
	maximum = 49
Slowest packet = 1677
Flit latency average = 19.8155
	minimum = 7
	maximum = 49
Slowest flit = 1677
Fragmentation average = 0
	minimum = 0
	maximum = 0
Injected packet rate average = 0.051625
	minimum = 0.0405 (at node 0)
	maximum = 0.0615 (at node 1)
Accepted packet rate average = 0.0516563
	minimum = 0.043 (at node 12)
	maximum = 0.059 (at node 1)
Injected flit rate average = 0.051625
	minimum = 0.0405 (at node 0)
	maximum = 0.0615 (at node 1)
Accepted flit rate average= 0.0516563
	minimum = 0.043 (at node 12)
	maximum = 0.059 (at node 1)
Injected packet length average = 1
Accepted packet length average = 1
Total in-flight flits = 14 (14 measured)
latency change    = 0.00445424
throughput change = 0.0211736
Draining all recorded packets ...
Draining remaining packets ...
Time taken is 3561 cycles
Class 0:
Packet latency average = 19.601
	minimum = 7
	maximum = 46
Network latency average = 19.5961
	minimum = 7
	maximum = 46
Slowest packet = 3245
Flit latency average = 19.5961
	minimum = 7
	maximum = 46
Slowest flit = 3245
Fragmentation average = 0
	minimum = 0
	maximum = 0
Injected packet rate average = 0.05325
	minimum = 0.04 (at node 1)
	maximum = 0.074 (at node 5)
Accepted packet rate average = 0.05075
	minimum = 0.038 (at node 2)
	maximum = 0.078 (at node 13)
Injected flit rate average = 0.05325
	minimum = 0.04 (at node 1)
	maximum = 0.074 (at node 5)
Accepted flit rate average= 0.05075
	minimum = 0.038 (at node 2)
	maximum = 0.078 (at node 13)
Injected packet length average = 1
Accepted packet length average = 1
Total in-flight flits = 20 (0 measured)
latency change    = 1
throughput change = 1
Class 0:
Packet latency average = 19.6229
	minimum = 7
	maximum = 46
Network latency average = 19.6204
	minimum = 7
	maximum = 46
Slowest packet = 3245
Flit latency average = 19.6204
	minimum = 7
	maximum = 46
Slowest flit = 3245
Fragmentation average = 0
	minimum = 0
	maximum = 0
Injected packet rate average = 0.052
	minimum = 0.039 (at node 11)
	maximum = 0.069 (at node 12)
Accepted packet rate average = 0.050875
	minimum = 0.04 (at node 7)
	maximum = 0.064 (at node 4)
Injected flit rate average = 0.052
	minimum = 0.039 (at node 11)
	maximum = 0.069 (at node 12)
Accepted flit rate average= 0.050875
	minimum = 0.04 (at node 7)
	maximum = 0.064 (at node 4)
Injected packet length average = 1
Accepted packet length average = 1
Total in-flight flits = 18 (0 measured)
latency change    = 0.00111426
throughput change = 0.002457
Class 0:
Packet latency average = 20.3946
	minimum = 7
	maximum = 42
Network latency average = 20.3946
	minimum = 7
	maximum = 42
Slowest packet = 3751
Flit latency average = 20.3946
	minimum = 7
	maximum = 42
Slowest flit = 3751
Fragmentation average = 0
	minimum = 0
	maximum = 0
Injected packet rate average = 0.056
	minimum = 0.03 (at node 10)
	maximum = 0.076 (at node 1)
Accepted packet rate average = 0.05575
	minimum = 0.042 (at node 10)
	maximum = 0.07 (at node 15)
Injected flit rate average = 0.056
	minimum = 0.03 (at node 10)
	maximum = 0.076 (at node 1)
Accepted flit rate average= 0.05575
	minimum = 0.042 (at node 10)
	maximum = 0.07 (at node 15)
Injected packet length average = 1
Accepted packet length average = 1
Total in-flight flits = 20 (0 measured)
latency change    = 0.0378418
throughput change = 0.0874439
Warmed up ...Time used is 1500 cycles
Class 0:
Packet latency average = 19.7557
	minimum = 7
	maximum = 43
Network latency average = 19.7557
	minimum = 7
	maximum = 43
Slowest packet = 4272
Flit latency average = 20.0073
	minimum = 7
	maximum = 43
Slowest flit = 4272
Fragmentation average = 0
	minimum = 0
	maximum = 0
Injected packet rate average = 0.050625
	minimum = 0.042 (at node 1)
	maximum = 0.062 (at node 2)
Accepted packet rate average = 0.051625
	minimum = 0.034 (at node 7)
	maximum = 0.068 (at node 1)
Injected flit rate average = 0.050625
	minimum = 0.042 (at node 1)
	maximum = 0.062 (at node 2)
Accepted flit rate average= 0.051625
	minimum = 0.034 (at node 7)
	maximum = 0.068 (at node 1)
Injected packet length average = 1
Accepted packet length average = 1
Total in-flight flits = 12 (12 measured)
latency change    = 0.0323397
throughput change = 0.0799031
Class 0:
Packet latency average = 19.6054
	minimum = 7
	maximum = 45
Network latency average = 19.6054
	minimum = 7
	maximum = 45
Slowest packet = 4654
Flit latency average = 19.7393
	minimum = 7
	maximum = 45
Slowest flit = 4654
Fragmentation average = 0
	minimum = 0
	maximum = 0
Injected packet rate average = 0.049875
	minimum = 0.041 (at node 8)
	maximum = 0.061 (at node 5)
Accepted packet rate average = 0.049875
	minimum = 0.042 (at node 10)
	maximum = 0.06 (at node 7)
Injected flit rate average = 0.049875
	minimum = 0.041 (at node 8)
	maximum = 0.061 (at node 5)
Accepted flit rate average= 0.049875
	minimum = 0.042 (at node 10)
	maximum = 0.06 (at node 7)
Injected packet length average = 1
Accepted packet length average = 1
Total in-flight flits = 20 (20 measured)
latency change    = 0.00766762
throughput change = 0.0350877
Class 0:
Packet latency average = 19.955
	minimum = 7
	maximum = 45
Network latency average = 19.955
	minimum = 7
	maximum = 45
Slowest packet = 4654
Flit latency average = 20.0384
	minimum = 7
	maximum = 45
Slowest flit = 4654
Fragmentation average = 0
	minimum = 0
	maximum = 0
Injected packet rate average = 0.049625
	minimum = 0.0393333 (at node 15)
	maximum = 0.0606667 (at node 5)
Accepted packet rate average = 0.0499583
	minimum = 0.04 (at node 10)
	maximum = 0.0586667 (at node 14)
Injected flit rate average = 0.049625
	minimum = 0.0393333 (at node 15)
	maximum = 0.0606667 (at node 5)
Accepted flit rate average= 0.0499583
	minimum = 0.04 (at node 10)
	maximum = 0.0586667 (at node 14)
Injected packet length average = 1
Accepted packet length average = 1
Total in-flight flits = 12 (12 measured)
latency change    = 0.0175218
throughput change = 0.00166806
Class 0:
Packet latency average = 19.8167
	minimum = 7
	maximum = 45
Network latency average = 19.8167
	minimum = 7
	maximum = 45
Slowest packet = 4654
Flit latency average = 19.881
	minimum = 7
	maximum = 45
Slowest flit = 4654
Fragmentation average = 0
	minimum = 0
	maximum = 0
Injected packet rate average = 0.049625
	minimum = 0.04 (at node 15)
	maximum = 0.0575 (at node 2)
Accepted packet rate average = 0.0499062
	minimum = 0.042 (at node 10)
	maximum = 0.0555 (at node 4)
Injected flit rate average = 0.049625
	minimum = 0.04 (at node 15)
	maximum = 0.0575 (at node 2)
Accepted flit rate average= 0.0499062
	minimum = 0.042 (at node 10)
	maximum = 0.0555 (at node 4)
Injected packet length average = 1
Accepted packet length average = 1
Total in-flight flits = 11 (11 measured)
latency change    = 0.00697925
throughput change = 0.00104362
Draining all recorded packets ...
Draining remaining packets ...
Time taken is 3552 cycles
Class 0:
Packet latency average = 19.9735
	minimum = 7
	maximum = 48
Network latency average = 19.9735
	minimum = 7
	maximum = 48
Slowest packet = 6023
Flit latency average = 19.9735
	minimum = 7
	maximum = 48
Slowest flit = 6023
Fragmentation average = 0
	minimum = 0
	maximum = 0
Injected packet rate average = 0.04925
	minimum = 0.026 (at node 5)
	maximum = 0.07 (at node 4)
Accepted packet rate average = 0.047125
	minimum = 0.034 (at node 14)
	maximum = 0.056 (at node 8)
Injected flit rate average = 0.04925
	minimum = 0.026 (at node 5)
	maximum = 0.07 (at node 4)
Accepted flit rate average= 0.047125
	minimum = 0.034 (at node 14)
	maximum = 0.056 (at node 8)
Injected packet length average = 1
Accepted packet length average = 1
Total in-flight flits = 17 (0 measured)
latency change    = 1
throughput change = 1
Class 0:
Packet latency average = 20.2013
	minimum = 7
	maximum = 48
Network latency average = 20.2013
	minimum = 7
	maximum = 48
Slowest packet = 6023
Flit latency average = 20.2013
	minimum = 7
	maximum = 48
Slowest flit = 6023
Fragmentation average = 0
	minimum = 0
	maximum = 0
Injected packet rate average = 0.0490625
	minimum = 0.042 (at node 12)
	maximum = 0.062 (at node 4)
Accepted packet rate average = 0.048125
	minimum = 0.039 (at node 10)
	maximum = 0.059 (at node 9)
Injected flit rate average = 0.0490625
	minimum = 0.042 (at node 12)
	maximum = 0.062 (at node 4)
Accepted flit rate average= 0.048125
	minimum = 0.039 (at node 10)
	maximum = 0.059 (at node 9)
Injected packet length average = 1
Accepted packet length average = 1
Total in-flight flits = 15 (0 measured)
latency change    = 0.0112777
throughput change = 0.0207792
Class 0:
Packet latency average = 20.264
	minimum = 7
	maximum = 39
Network latency average = 20.264
	minimum = 7
	maximum = 39
Slowest packet = 6683
Flit latency average = 20.264
	minimum = 7
	maximum = 39
Slowest flit = 6683
Fragmentation average = 0
	minimum = 0
	maximum = 0
Injected packet rate average = 0.05
	minimum = 0.036 (at node 4)
	maximum = 0.07 (at node 6)
Accepted packet rate average = 0.04925
	minimum = 0.03 (at node 12)
	maximum = 0.08 (at node 10)
Injected flit rate average = 0.05
	minimum = 0.036 (at node 4)
	maximum = 0.07 (at node 6)
Accepted flit rate average= 0.04925
	minimum = 0.03 (at node 12)
	maximum = 0.08 (at node 10)
Injected packet length average = 1
Accepted packet length average = 1
Total in-flight flits = 21 (0 measured)
latency change    = 0.00309222
throughput change = 0.0228426
Warmed up ...Time used is 1500 cycles
Class 0:
Packet latency average = 20.1902
	minimum = 7
	maximum = 38
Network latency average = 20.1902
	minimum = 7
	maximum = 38
Slowest packet = 7282
Flit latency average = 20.3445
	minimum = 7
	maximum = 38
Slowest flit = 7282
Fragmentation average = 0
	minimum = 0
	maximum = 0
Injected packet rate average = 0.04725
	minimum = 0.04 (at node 6)
	maximum = 0.058 (at node 12)
Accepted packet rate average = 0.048625
	minimum = 0.03 (at node 7)
	maximum = 0.072 (at node 14)
Injected flit rate average = 0.04725
	minimum = 0.04 (at node 6)
	maximum = 0.058 (at node 12)
Accepted flit rate average= 0.048625
	minimum = 0.03 (at node 7)
	maximum = 0.072 (at node 14)
Injected packet length average = 1
Accepted packet length average = 1
Total in-flight flits = 10 (10 measured)
latency change    = 0.00365236
throughput change = 0.0128535
Class 0:
Packet latency average = 19.979
	minimum = 7
	maximum = 40
Network latency average = 19.979
	minimum = 7
	maximum = 40
Slowest packet = 7554
Flit latency average = 20.0612
	minimum = 7
	maximum = 40
Slowest flit = 7554
Fragmentation average = 0
	minimum = 0
	maximum = 0
Injected packet rate average = 0.0483125
	minimum = 0.039 (at node 3)
	maximum = 0.061 (at node 14)
Accepted packet rate average = 0.049
	minimum = 0.039 (at node 3)
	maximum = 0.062 (at node 5)
Injected flit rate average = 0.0483125
	minimum = 0.039 (at node 3)
	maximum = 0.061 (at node 14)
Accepted flit rate average= 0.049
	minimum = 0.039 (at node 3)
	maximum = 0.062 (at node 5)
Injected packet length average = 1
Accepted packet length average = 1
Total in-flight flits = 10 (10 measured)
latency change    = 0.0105704
throughput change = 0.00765306
Class 0:
Packet latency average = 19.7353
	minimum = 7
	maximum = 46
Network latency average = 19.7353
	minimum = 7
	maximum = 46
Slowest packet = 7898
Flit latency average = 19.7936
	minimum = 7
	maximum = 46
Slowest flit = 7898
Fragmentation average = 0
	minimum = 0
	maximum = 0
Injected packet rate average = 0.0492083
	minimum = 0.0366667 (at node 3)
	maximum = 0.0626667 (at node 14)
Accepted packet rate average = 0.0496667
	minimum = 0.0386667 (at node 15)
	maximum = 0.0606667 (at node 5)
Injected flit rate average = 0.0492083
	minimum = 0.0366667 (at node 3)
	maximum = 0.0626667 (at node 14)
Accepted flit rate average= 0.0496667
	minimum = 0.0386667 (at node 15)
	maximum = 0.0606667 (at node 5)
Injected packet length average = 1
Accepted packet length average = 1
Total in-flight flits = 10 (10 measured)
latency change    = 0.0123515
throughput change = 0.0134228
Draining all recorded packets ...
Draining remaining packets ...
Time taken is 3048 cycles
Class 0:
Packet latency average = 19.6878
	minimum = 7
	maximum = 42
Network latency average = 19.6878
	minimum = 7
	maximum = 42
Slowest packet = 8485
Flit latency average = 19.6878
	minimum = 7
	maximum = 42
Slowest flit = 8485
Fragmentation average = 0
	minimum = 0
	maximum = 0
Injected packet rate average = 0.049
	minimum = 0.038 (at node 15)
	maximum = 0.068 (at node 9)
Accepted packet rate average = 0.04725
	minimum = 0.034 (at node 8)
	maximum = 0.066 (at node 10)
Injected flit rate average = 0.049
	minimum = 0.038 (at node 15)
	maximum = 0.068 (at node 9)
Accepted flit rate average= 0.04725
	minimum = 0.034 (at node 8)
	maximum = 0.066 (at node 10)
Injected packet length average = 1
Accepted packet length average = 1
Total in-flight flits = 14 (0 measured)
latency change    = 1
throughput change = 1
Class 0:
Packet latency average = 19.5586
	minimum = 7
	maximum = 42
Network latency average = 19.5586
	minimum = 7
	maximum = 42
Slowest packet = 8485
Flit latency average = 19.5586
	minimum = 7
	maximum = 42
Slowest flit = 8485
Fragmentation average = 0
	minimum = 0
	maximum = 0
Injected packet rate average = 0.049
	minimum = 0.038 (at node 7)
	maximum = 0.059 (at node 9)
Accepted packet rate average = 0.0474375
	minimum = 0.035 (at node 1)
	maximum = 0.057 (at node 14)
Injected flit rate average = 0.049
	minimum = 0.038 (at node 7)
	maximum = 0.059 (at node 9)
Accepted flit rate average= 0.0474375
	minimum = 0.035 (at node 1)
	maximum = 0.057 (at node 14)
Injected packet length average = 1
Accepted packet length average = 1
Total in-flight flits = 25 (0 measured)
latency change    = 0.00660583
throughput change = 0.00395257
Class 0:
Packet latency average = 20.0771
	minimum = 7
	maximum = 43
Network latency average = 20.0771
	minimum = 7
	maximum = 43
Slowest packet = 9220
Flit latency average = 20.0771
	minimum = 7
	maximum = 43
Slowest flit = 9220
Fragmentation average = 0
	minimum = 0
	maximum = 0
Injected packet rate average = 0.049125
	minimum = 0.034 (at node 13)
	maximum = 0.07 (at node 9)
Accepted packet rate average = 0.05025
	minimum = 0.03 (at node 15)
	maximum = 0.07 (at node 5)
Injected flit rate average = 0.049125
	minimum = 0.034 (at node 13)
	maximum = 0.07 (at node 9)
Accepted flit rate average= 0.05025
	minimum = 0.03 (at node 15)
	maximum = 0.07 (at node 5)
Injected packet length average = 1
Accepted packet length average = 1
Total in-flight flits = 16 (0 measured)
latency change    = 0.0258247
throughput change = 0.0559701
Warmed up ...Time used is 1500 cycles
Class 0:
Packet latency average = 20.4389
	minimum = 7
	maximum = 46
Network latency average = 20.4389
	minimum = 7
	maximum = 46
Slowest packet = 9393
Flit latency average = 20.484
	minimum = 7
	maximum = 46
Slowest flit = 9393
Fragmentation average = 0
	minimum = 0
	maximum = 0
Injected packet rate average = 0.047875
	minimum = 0.024 (at node 11)
	maximum = 0.072 (at node 4)
Accepted packet rate average = 0.047
	minimum = 0.032 (at node 4)
	maximum = 0.066 (at node 8)
Injected flit rate average = 0.047875
	minimum = 0.024 (at node 11)
	maximum = 0.072 (at node 4)
Accepted flit rate average= 0.047
	minimum = 0.032 (at node 4)
	maximum = 0.066 (at node 8)
Injected packet length average = 1
Accepted packet length average = 1
Total in-flight flits = 23 (23 measured)
latency change    = 0.0177003
throughput change = 0.0691489
Class 0:
Packet latency average = 20.1676
	minimum = 7
	maximum = 46
Network latency average = 20.1676
	minimum = 7
	maximum = 46
Slowest packet = 9393
Flit latency average = 20.1955
	minimum = 7
	maximum = 46
Slowest flit = 9393
Fragmentation average = 0
	minimum = 0
	maximum = 0
Injected packet rate average = 0.0470625
	minimum = 0.033 (at node 11)
	maximum = 0.068 (at node 4)
Accepted packet rate average = 0.047625
	minimum = 0.031 (at node 4)
	maximum = 0.067 (at node 8)
Injected flit rate average = 0.0470625
	minimum = 0.033 (at node 11)
	maximum = 0.068 (at node 4)
Accepted flit rate average= 0.047625
	minimum = 0.031 (at node 4)
	maximum = 0.067 (at node 8)
Injected packet length average = 1
Accepted packet length average = 1
Total in-flight flits = 7 (7 measured)
latency change    = 0.0134537
throughput change = 0.0131234
Class 0:
Packet latency average = 20.1873
	minimum = 7
	maximum = 47
Network latency average = 20.1873
	minimum = 7
	maximum = 47
Slowest packet = 10391
Flit latency average = 20.2056
	minimum = 7
	maximum = 47
Slowest flit = 10391
Fragmentation average = 0
	minimum = 0
	maximum = 0
Injected packet rate average = 0.048
	minimum = 0.0346667 (at node 11)
	maximum = 0.0586667 (at node 4)
Accepted packet rate average = 0.0480417
	minimum = 0.036 (at node 4)
	maximum = 0.0606667 (at node 8)
Injected flit rate average = 0.048
	minimum = 0.0346667 (at node 11)
	maximum = 0.0586667 (at node 4)
Accepted flit rate average= 0.0480417
	minimum = 0.036 (at node 4)
	maximum = 0.0606667 (at node 8)
Injected packet length average = 1
Accepted packet length average = 1
Total in-flight flits = 15 (15 measured)
latency change    = 0.000979563
throughput change = 0.00867303
Class 0:
Packet latency average = 20.0421
	minimum = 7
	maximum = 47
Network latency average = 20.0421
	minimum = 7
	maximum = 47
Slowest packet = 10391
Flit latency average = 20.0573
	minimum = 7
	maximum = 47
Slowest flit = 10391
Fragmentation average = 0
	minimum = 0
	maximum = 0
Injected packet rate average = 0.0480625
	minimum = 0.0375 (at node 11)
	maximum = 0.0555 (at node 15)
Accepted packet rate average = 0.048
	minimum = 0.039 (at node 15)
	maximum = 0.0565 (at node 8)
Injected flit rate average = 0.0480625
	minimum = 0.0375 (at node 11)
	maximum = 0.0555 (at node 15)
Accepted flit rate average= 0.048
	minimum = 0.039 (at node 15)
	maximum = 0.0565 (at node 8)
Injected packet length average = 1
Accepted packet length average = 1
Total in-flight flits = 18 (18 measured)
latency change    = 0.00724624
throughput change = 0.000868056
Draining all recorded packets ...
Draining remaining packets ...
Time taken is 3556 cycles
Class 0:
Packet latency average = 19.073
	minimum = 7
	maximum = 37
Network latency average = 19.073
	minimum = 7
	maximum = 37
Slowest packet = 10974
Flit latency average = 19.073
	minimum = 7
	maximum = 37
Slowest flit = 10974
Fragmentation average = 0
	minimum = 0
	maximum = 0
Injected packet rate average = 0.04625
	minimum = 0.034 (at node 2)
	maximum = 0.058 (at node 12)
Accepted packet rate average = 0.0445
	minimum = 0.026 (at node 7)
	maximum = 0.054 (at node 11)
Injected flit rate average = 0.04625
	minimum = 0.034 (at node 2)
	maximum = 0.058 (at node 12)
Accepted flit rate average= 0.0445
	minimum = 0.026 (at node 7)
	maximum = 0.054 (at node 11)
Injected packet length average = 1
Accepted packet length average = 1
Total in-flight flits = 14 (0 measured)
latency change    = 1
throughput change = 1
Class 0:
Packet latency average = 19.8692
	minimum = 7
	maximum = 47
Network latency average = 19.8692
	minimum = 7
	maximum = 47
Slowest packet = 11493
Flit latency average = 19.8692
	minimum = 7
	maximum = 47
Slowest flit = 11493
Fragmentation average = 0
	minimum = 0
	maximum = 0
Injected packet rate average = 0.047375
	minimum = 0.041 (at node 1)
	maximum = 0.054 (at node 6)
Accepted packet rate average = 0.0468125
	minimum = 0.038 (at node 2)
	maximum = 0.056 (at node 15)
Injected flit rate average = 0.047375
	minimum = 0.041 (at node 1)
	maximum = 0.054 (at node 6)
Accepted flit rate average= 0.0468125
	minimum = 0.038 (at node 2)
	maximum = 0.056 (at node 15)
Injected packet length average = 1
Accepted packet length average = 1
Total in-flight flits = 9 (0 measured)
latency change    = 0.0400684
throughput change = 0.0493992
Class 0:
Packet latency average = 19.6821
	minimum = 7
	maximum = 39
Network latency average = 19.6821
	minimum = 7
	maximum = 39
Slowest packet = 11743
Flit latency average = 19.6821
	minimum = 7
	maximum = 39
Slowest flit = 11743
Fragmentation average = 0
	minimum = 0
	maximum = 0
Injected packet rate average = 0.054375
	minimum = 0.034 (at node 15)
	maximum = 0.07 (at node 7)
Accepted packet rate average = 0.053875
	minimum = 0.04 (at node 0)
	maximum = 0.072 (at node 14)
Injected flit rate average = 0.054375
	minimum = 0.034 (at node 15)
	maximum = 0.07 (at node 7)
Accepted flit rate average= 0.053875
	minimum = 0.04 (at node 0)
	maximum = 0.072 (at node 14)
Injected packet length average = 1
Accepted packet length average = 1
Total in-flight flits = 13 (0 measured)
latency change    = 0.00950224
throughput change = 0.13109
Warmed up ...Time used is 1500 cycles
Class 0:
Packet latency average = 19.9554
	minimum = 7
	maximum = 43
Network latency average = 19.9554
	minimum = 7
	maximum = 43
Slowest packet = 12091
Flit latency average = 20.1066
	minimum = 7
	maximum = 52
Slowest flit = 12086
Fragmentation average = 0
	minimum = 0
	maximum = 0
Injected packet rate average = 0.0495
	minimum = 0.034 (at node 9)
	maximum = 0.064 (at node 7)
Accepted packet rate average = 0.04925
	minimum = 0.03 (at node 0)
	maximum = 0.066 (at node 10)
Injected flit rate average = 0.0495
	minimum = 0.034 (at node 9)
	maximum = 0.064 (at node 7)
Accepted flit rate average= 0.04925
	minimum = 0.03 (at node 0)
	maximum = 0.066 (at node 10)
Injected packet length average = 1
Accepted packet length average = 1
Total in-flight flits = 15 (15 measured)
latency change    = 0.0136928
throughput change = 0.0939086
Class 0:
Packet latency average = 19.8726
	minimum = 7
	maximum = 50
Network latency average = 19.8726
	minimum = 7
	maximum = 50
Slowest packet = 12720
Flit latency average = 19.9479
	minimum = 7
	maximum = 52
Slowest flit = 12086
Fragmentation average = 0
	minimum = 0
	maximum = 0
Injected packet rate average = 0.0504375
	minimum = 0.04 (at node 9)
	maximum = 0.067 (at node 2)
Accepted packet rate average = 0.050375
	minimum = 0.04 (at node 2)
	maximum = 0.064 (at node 4)
Injected flit rate average = 0.0504375
	minimum = 0.04 (at node 9)
	maximum = 0.067 (at node 2)
Accepted flit rate average= 0.050375
	minimum = 0.04 (at node 2)
	maximum = 0.064 (at node 4)
Injected packet length average = 1
Accepted packet length average = 1
Total in-flight flits = 14 (14 measured)
latency change    = 0.00416377
throughput change = 0.0223325
Class 0:
Packet latency average = 19.8603
	minimum = 7
	maximum = 50
Network latency average = 19.8603
	minimum = 7
	maximum = 50
Slowest packet = 12720
Flit latency average = 19.9119
	minimum = 7
	maximum = 52
Slowest flit = 12086
Fragmentation average = 0
	minimum = 0
	maximum = 0
Injected packet rate average = 0.0491667
	minimum = 0.0426667 (at node 0)
	maximum = 0.0633333 (at node 15)
Accepted packet rate average = 0.0491667
	minimum = 0.036 (at node 0)
	maximum = 0.0626667 (at node 4)
Injected flit rate average = 0.0491667
	minimum = 0.0426667 (at node 0)
	maximum = 0.0633333 (at node 15)
Accepted flit rate average= 0.0491667
	minimum = 0.036 (at node 0)
	maximum = 0.0626667 (at node 4)
Injected packet length average = 1
Accepted packet length average = 1
Total in-flight flits = 13 (13 measured)
latency change    = 0.000619826
throughput change = 0.0245763
Class 0:
Packet latency average = 20.0496
	minimum = 7
	maximum = 50
Network latency average = 20.0496
	minimum = 7
	maximum = 50
Slowest packet = 12720
Flit latency average = 20.0864
	minimum = 7
	maximum = 52
Slowest flit = 12086
Fragmentation average = 0
	minimum = 0
	maximum = 0
Injected packet rate average = 0.0494062
	minimum = 0.044 (at node 8)
	maximum = 0.061 (at node 15)
Accepted packet rate average = 0.0495625
	minimum = 0.0405 (at node 2)
	maximum = 0.0605 (at node 10)
Injected flit rate average = 0.0494062
	minimum = 0.044 (at node 8)
	maximum = 0.061 (at node 15)
Accepted flit rate average= 0.0495625
	minimum = 0.0405 (at node 2)
	maximum = 0.0605 (at node 10)
Injected packet length average = 1
Accepted packet length average = 1
Total in-flight flits = 8 (8 measured)
latency change    = 0.00943965
throughput change = 0.00798655
Draining all recorded packets ...
Draining remaining packets ...
Time taken is 3550 cycles
Class 0:
Packet latency average = 19.6887
	minimum = 7
	maximum = 38
Network latency average = 19.6887
	minimum = 7
	maximum = 38
Slowest packet = 13902
Flit latency average = 19.6887
	minimum = 7
	maximum = 38
Slowest flit = 13902
Fragmentation average = 0
	minimum = 0
	maximum = 0
Injected packet rate average = 0.0475
	minimum = 0.03 (at node 8)
	maximum = 0.062 (at node 0)
Accepted packet rate average = 0.045375
	minimum = 0.036 (at node 6)
	maximum = 0.07 (at node 12)
Injected flit rate average = 0.0475
	minimum = 0.03 (at node 8)
	maximum = 0.062 (at node 0)
Accepted flit rate average= 0.045375
	minimum = 0.036 (at node 6)
	maximum = 0.07 (at node 12)
Injected packet length average = 1
Accepted packet length average = 1
Total in-flight flits = 17 (0 measured)
latency change    = 1
throughput change = 1
Class 0:
Packet latency average = 19.9243
	minimum = 7
	maximum = 42
Network latency average = 19.9243
	minimum = 7
	maximum = 42
Slowest packet = 14403
Flit latency average = 19.9243
	minimum = 7
	maximum = 42
Slowest flit = 14403
Fragmentation average = 0
	minimum = 0
	maximum = 0
Injected packet rate average = 0.0494375
	minimum = 0.04 (at node 8)
	maximum = 0.059 (at node 14)
Accepted packet rate average = 0.0486875
	minimum = 0.034 (at node 13)
	maximum = 0.066 (at node 12)
Injected flit rate average = 0.0494375
	minimum = 0.04 (at node 8)
	maximum = 0.059 (at node 14)
Accepted flit rate average= 0.0486875
	minimum = 0.034 (at node 13)
	maximum = 0.066 (at node 12)
Injected packet length average = 1
Accepted packet length average = 1
Total in-flight flits = 12 (0 measured)
latency change    = 0.0118226
throughput change = 0.0680359
Class 0:
Packet latency average = 19.7376
	minimum = 7
	maximum = 41
Network latency average = 19.7376
	minimum = 7
	maximum = 41
Slowest packet = 14705
Flit latency average = 19.7376
	minimum = 7
	maximum = 41
Slowest flit = 14705
Fragmentation average = 0
	minimum = 0
	maximum = 0
Injected packet rate average = 0.050375
	minimum = 0.042 (at node 0)
	maximum = 0.06 (at node 5)
Accepted packet rate average = 0.0505
	minimum = 0.034 (at node 13)
	maximum = 0.066 (at node 6)
Injected flit rate average = 0.050375
	minimum = 0.042 (at node 0)
	maximum = 0.06 (at node 5)
Accepted flit rate average= 0.0505
	minimum = 0.034 (at node 13)
	maximum = 0.066 (at node 6)
Injected packet length average = 1
Accepted packet length average = 1
Total in-flight flits = 11 (0 measured)
latency change    = 0.00945596
throughput change = 0.0358911
Warmed up ...Time used is 1500 cycles
Class 0:
Packet latency average = 19.6407
	minimum = 7
	maximum = 42
Network latency average = 19.6407
	minimum = 7
	maximum = 42
Slowest packet = 14945
Flit latency average = 19.6601
	minimum = 7
	maximum = 42
Slowest flit = 14945
Fragmentation average = 0
	minimum = 0
	maximum = 0
Injected packet rate average = 0.051125
	minimum = 0.034 (at node 8)
	maximum = 0.07 (at node 7)
Accepted packet rate average = 0.051125
	minimum = 0.03 (at node 11)
	maximum = 0.076 (at node 4)
Injected flit rate average = 0.051125
	minimum = 0.034 (at node 8)
	maximum = 0.07 (at node 7)
Accepted flit rate average= 0.051125
	minimum = 0.03 (at node 11)
	maximum = 0.076 (at node 4)
Injected packet length average = 1
Accepted packet length average = 1
Total in-flight flits = 11 (11 measured)
latency change    = 0.00493466
throughput change = 0.0122249
Class 0:
Packet latency average = 19.8858
	minimum = 7
	maximum = 50
Network latency average = 19.8858
	minimum = 7
	maximum = 50
Slowest packet = 15290
Flit latency average = 19.8924
	minimum = 7
	maximum = 50
Slowest flit = 15290
Fragmentation average = 0
	minimum = 0
	maximum = 0
Injected packet rate average = 0.049625
	minimum = 0.032 (at node 8)
	maximum = 0.067 (at node 7)
Accepted packet rate average = 0.049375
	minimum = 0.031 (at node 2)
	maximum = 0.067 (at node 4)
Injected flit rate average = 0.049625
	minimum = 0.032 (at node 8)
	maximum = 0.067 (at node 7)
Accepted flit rate average= 0.049375
	minimum = 0.031 (at node 2)
	maximum = 0.067 (at node 4)
Injected packet length average = 1
Accepted packet length average = 1
Total in-flight flits = 15 (15 measured)
latency change    = 0.0123228
throughput change = 0.035443
Class 0:
Packet latency average = 20.074
	minimum = 7
	maximum = 50
Network latency average = 20.074
	minimum = 7
	maximum = 50
Slowest packet = 15290
Flit latency average = 20.0767
	minimum = 7
	maximum = 50
Slowest flit = 15290
Fragmentation average = 0
	minimum = 0
	maximum = 0
Injected packet rate average = 0.0498333
	minimum = 0.034 (at node 8)
	maximum = 0.0633333 (at node 7)
Accepted packet rate average = 0.0494583
	minimum = 0.0353333 (at node 2)
	maximum = 0.062 (at node 4)
Injected flit rate average = 0.0498333
	minimum = 0.034 (at node 8)
	maximum = 0.0633333 (at node 7)
Accepted flit rate average= 0.0494583
	minimum = 0.0353333 (at node 2)
	maximum = 0.062 (at node 4)
Injected packet length average = 1
Accepted packet length average = 1
Total in-flight flits = 20 (20 measured)
latency change    = 0.00937675
throughput change = 0.00168492
Draining all recorded packets ...
Draining remaining packets ...
Time taken is 3062 cycles
Class 0:
Packet latency average = 19.5125
	minimum = 7
	maximum = 54
Network latency average = 19.5125
	minimum = 7
	maximum = 54
Slowest packet = 16405
Flit latency average = 19.5125
	minimum = 7
	maximum = 54
Slowest flit = 16405
Fragmentation average = 0
	minimum = 0
	maximum = 0
Injected packet rate average = 0.05175
	minimum = 0.04 (at node 3)
	maximum = 0.07 (at node 10)
Accepted packet rate average = 0.05
	minimum = 0.026 (at node 0)
	maximum = 0.07 (at node 2)
Injected flit rate average = 0.05175
	minimum = 0.04 (at node 3)
	maximum = 0.07 (at node 10)
Accepted flit rate average= 0.05
	minimum = 0.026 (at node 0)
	maximum = 0.07 (at node 2)
Injected packet length average = 1
Accepted packet length average = 1
Total in-flight flits = 14 (0 measured)
latency change    = 1
throughput change = 1
Class 0:
Packet latency average = 19.5632
	minimum = 7
	maximum = 54
Network latency average = 19.5632
	minimum = 7
	maximum = 54
Slowest packet = 16405
Flit latency average = 19.5632
	minimum = 7
	maximum = 54
Slowest flit = 16405
Fragmentation average = 0
	minimum = 0
	maximum = 0
Injected packet rate average = 0.0489375
	minimum = 0.037 (at node 3)
	maximum = 0.06 (at node 2)
Accepted packet rate average = 0.0475
	minimum = 0.033 (at node 0)
	maximum = 0.059 (at node 2)
Injected flit rate average = 0.0489375
	minimum = 0.037 (at node 3)
	maximum = 0.06 (at node 2)
Accepted flit rate average= 0.0475
	minimum = 0.033 (at node 0)
	maximum = 0.059 (at node 2)
Injected packet length average = 1
Accepted packet length average = 1
Total in-flight flits = 23 (0 measured)
latency change    = 0.00258945
throughput change = 0.0526316
Class 0:
Packet latency average = 19.9726
	minimum = 7
	maximum = 44
Network latency average = 19.9726
	minimum = 7
	maximum = 44
Slowest packet = 16954
Flit latency average = 19.9726
	minimum = 7
	maximum = 44
Slowest flit = 16954
Fragmentation average = 0
	minimum = 0
	maximum = 0
Injected packet rate average = 0.054
	minimum = 0.02 (at node 6)
	maximum = 0.074 (at node 15)
Accepted packet rate average = 0.05475
	minimum = 0.038 (at node 2)
	maximum = 0.076 (at node 3)
Injected flit rate average = 0.054
	minimum = 0.02 (at node 6)
	maximum = 0.074 (at node 15)
Accepted flit rate average= 0.05475
	minimum = 0.038 (at node 2)
	maximum = 0.076 (at node 3)
Injected packet length average = 1
Accepted packet length average = 1
Total in-flight flits = 17 (0 measured)
latency change    = 0.0205003
throughput change = 0.13242
Warmed up ...Time used is 1500 cycles
Class 0:
Packet latency average = 20.4139
	minimum = 7
	maximum = 45
Network latency average = 20.4139
	minimum = 7
	maximum = 45
Slowest packet = 17428
Flit latency average = 20.5074
	minimum = 7
	maximum = 45
Slowest flit = 17428
Fragmentation average = 0
	minimum = 0
	maximum = 0
Injected packet rate average = 0.050125
	minimum = 0.024 (at node 5)
	maximum = 0.06 (at node 1)
Accepted packet rate average = 0.05075
	minimum = 0.032 (at node 13)
	maximum = 0.072 (at node 7)
Injected flit rate average = 0.050125
	minimum = 0.024 (at node 5)
	maximum = 0.06 (at node 1)
Accepted flit rate average= 0.05075
	minimum = 0.032 (at node 13)
	maximum = 0.072 (at node 7)
Injected packet length average = 1
Accepted packet length average = 1
Total in-flight flits = 12 (12 measured)
latency change    = 0.0216166
throughput change = 0.0788177
Class 0:
Packet latency average = 19.961
	minimum = 7
	maximum = 47
Network latency average = 19.961
	minimum = 7
	maximum = 47
Slowest packet = 18047
Flit latency average = 20.0173
	minimum = 7
	maximum = 47
Slowest flit = 18047
Fragmentation average = 0
	minimum = 0
	maximum = 0
Injected packet rate average = 0.0509375
	minimum = 0.039 (at node 5)
	maximum = 0.062 (at node 9)
Accepted packet rate average = 0.0506875
	minimum = 0.04 (at node 5)
	maximum = 0.067 (at node 7)
Injected flit rate average = 0.0509375
	minimum = 0.039 (at node 5)
	maximum = 0.062 (at node 9)
Accepted flit rate average= 0.0506875
	minimum = 0.04 (at node 5)
	maximum = 0.067 (at node 7)
Injected packet length average = 1
Accepted packet length average = 1
Total in-flight flits = 21 (21 measured)
latency change    = 0.0226905
throughput change = 0.00123305
Class 0:
Packet latency average = 20.1517
	minimum = 7
	maximum = 47
Network latency average = 20.1517
	minimum = 7
	maximum = 47
Slowest packet = 18047
Flit latency average = 20.1871
	minimum = 7
	maximum = 47
Slowest flit = 18047
Fragmentation average = 0
	minimum = 0
	maximum = 0
Injected packet rate average = 0.049625
	minimum = 0.042 (at node 5)
	maximum = 0.0593333 (at node 9)
Accepted packet rate average = 0.049875
	minimum = 0.0373333 (at node 5)
	maximum = 0.0646667 (at node 7)
Injected flit rate average = 0.049625
	minimum = 0.042 (at node 5)
	maximum = 0.0593333 (at node 9)
Accepted flit rate average= 0.049875
	minimum = 0.0373333 (at node 5)
	maximum = 0.0646667 (at node 7)
Injected packet length average = 1
Accepted packet length average = 1
Total in-flight flits = 11 (11 measured)
latency change    = 0.0094651
throughput change = 0.0162907
Class 0:
Packet latency average = 20.0509
	minimum = 7
	maximum = 47
Network latency average = 20.0509
	minimum = 7
	maximum = 47
Slowest packet = 18047
Flit latency average = 20.0784
	minimum = 7
	maximum = 47
Slowest flit = 18047
Fragmentation average = 0
	minimum = 0
	maximum = 0
Injected packet rate average = 0.05025
	minimum = 0.0435 (at node 14)
	maximum = 0.058 (at node 2)
Accepted packet rate average = 0.0502187
	minimum = 0.04 (at node 15)
	maximum = 0.0635 (at node 3)
Injected flit rate average = 0.05025
	minimum = 0.0435 (at node 14)
	maximum = 0.058 (at node 2)
Accepted flit rate average= 0.0502187
	minimum = 0.04 (at node 15)
	maximum = 0.0635 (at node 3)
Injected packet length average = 1
Accepted packet length average = 1
Total in-flight flits = 18 (18 measured)
latency change    = 0.00502478
throughput change = 0.00684505
Draining all recorded packets ...
Draining remaining packets ...
Time taken is 3559 cycles
Class 0:
Packet latency average = 18.9066
	minimum = 7
	maximum = 37
Network latency average = 18.9066
	minimum = 7
	maximum = 37
Slowest packet = 18993
Flit latency average = 18.9066
	minimum = 7
	maximum = 37
Slowest flit = 18993
Fragmentation average = 0
	minimum = 0
	maximum = 0
Injected packet rate average = 0.052375
	minimum = 0.03 (at node 0)
	maximum = 0.068 (at node 4)
Accepted packet rate average = 0.050875
	minimum = 0.03 (at node 3)
	maximum = 0.066 (at node 6)
Injected flit rate average = 0.052375
	minimum = 0.03 (at node 0)
	maximum = 0.068 (at node 4)
Accepted flit rate average= 0.050875
	minimum = 0.03 (at node 3)
	maximum = 0.066 (at node 6)
Injected packet length average = 1
Accepted packet length average = 1
Total in-flight flits = 12 (0 measured)
latency change    = 1
throughput change = 1
Class 0:
Packet latency average = 19.2963
	minimum = 7
	maximum = 41
Network latency average = 19.2963
	minimum = 7
	maximum = 41
Slowest packet = 19611
Flit latency average = 19.2963
	minimum = 7
	maximum = 41
Slowest flit = 19611
Fragmentation average = 0
	minimum = 0
	maximum = 0
Injected packet rate average = 0.053375
	minimum = 0.042 (at node 0)
	maximum = 0.07 (at node 5)
Accepted packet rate average = 0.0523125
	minimum = 0.035 (at node 3)
	maximum = 0.065 (at node 5)
Injected flit rate average = 0.053375
	minimum = 0.042 (at node 0)
	maximum = 0.07 (at node 5)
Accepted flit rate average= 0.0523125
	minimum = 0.035 (at node 3)
	maximum = 0.065 (at node 5)
Injected packet length average = 1
Accepted packet length average = 1
Total in-flight flits = 17 (0 measured)
latency change    = 0.0201936
throughput change = 0.0274791
Class 0:
Packet latency average = 20.4458
	minimum = 7
	maximum = 42
Network latency average = 20.4458
	minimum = 7
	maximum = 42
Slowest packet = 19871
Flit latency average = 20.4458
	minimum = 7
	maximum = 42
Slowest flit = 19871
Fragmentation average = 0
	minimum = 0
	maximum = 0
Injected packet rate average = 0.048875
	minimum = 0.024 (at node 6)
	maximum = 0.066 (at node 11)
Accepted packet rate average = 0.049625
	minimum = 0.038 (at node 14)
	maximum = 0.058 (at node 6)
Injected flit rate average = 0.048875
	minimum = 0.024 (at node 6)
	maximum = 0.066 (at node 11)
Accepted flit rate average= 0.049625
	minimum = 0.038 (at node 14)
	maximum = 0.058 (at node 6)
Injected packet length average = 1
Accepted packet length average = 1
Total in-flight flits = 11 (0 measured)
latency change    = 0.056224
throughput change = 0.0541562
Warmed up ...Time used is 1500 cycles
Class 0:
Packet latency average = 19.5983
	minimum = 7
	maximum = 40
Network latency average = 19.5983
	minimum = 7
	maximum = 40
Slowest packet = 20254
Flit latency average = 19.6828
	minimum = 7
	maximum = 40
Slowest flit = 20254
Fragmentation average = 0
	minimum = 0
	maximum = 0
Injected packet rate average = 0.0465
	minimum = 0.02 (at node 14)
	maximum = 0.084 (at node 10)
Accepted packet rate average = 0.0465
	minimum = 0.026 (at node 12)
	maximum = 0.062 (at node 4)
Injected flit rate average = 0.0465
	minimum = 0.02 (at node 14)
	maximum = 0.084 (at node 10)
Accepted flit rate average= 0.0465
	minimum = 0.026 (at node 12)
	maximum = 0.062 (at node 4)
Injected packet length average = 1
Accepted packet length average = 1
Total in-flight flits = 11 (11 measured)
latency change    = 0.0432438
throughput change = 0.0672043
Class 0:
Packet latency average = 19.9262
	minimum = 7
	maximum = 46
Network latency average = 19.9262
	minimum = 7
	maximum = 46
Slowest packet = 20866
Flit latency average = 19.9617
	minimum = 7
	maximum = 46
Slowest flit = 20866
Fragmentation average = 0
	minimum = 0
	maximum = 0
Injected packet rate average = 0.0489375
	minimum = 0.034 (at node 2)
	maximum = 0.075 (at node 10)
Accepted packet rate average = 0.0489375
	minimum = 0.034 (at node 7)
	maximum = 0.061 (at node 5)
Injected flit rate average = 0.0489375
	minimum = 0.034 (at node 2)
	maximum = 0.075 (at node 10)
Accepted flit rate average= 0.0489375
	minimum = 0.034 (at node 7)
	maximum = 0.061 (at node 5)
Injected packet length average = 1
Accepted packet length average = 1
Total in-flight flits = 11 (11 measured)
latency change    = 0.0164521
throughput change = 0.0498084
Class 0:
Packet latency average = 19.9519
	minimum = 7
	maximum = 46
Network latency average = 19.9519
	minimum = 7
	maximum = 46
Slowest packet = 20866
Flit latency average = 19.9745
	minimum = 7
	maximum = 46
Slowest flit = 20866
Fragmentation average = 0
	minimum = 0
	maximum = 0
Injected packet rate average = 0.05075
	minimum = 0.0393333 (at node 2)
	maximum = 0.064 (at node 10)
Accepted packet rate average = 0.0507083
	minimum = 0.0406667 (at node 11)
	maximum = 0.066 (at node 4)
Injected flit rate average = 0.05075
	minimum = 0.0393333 (at node 2)
	maximum = 0.064 (at node 10)
Accepted flit rate average= 0.0507083
	minimum = 0.0406667 (at node 11)
	maximum = 0.066 (at node 4)
Injected packet length average = 1
Accepted packet length average = 1
Total in-flight flits = 12 (12 measured)
latency change    = 0.00129017
throughput change = 0.0349219
Class 0:
Packet latency average = 19.9336
	minimum = 7
	maximum = 46
Network latency average = 19.9336
	minimum = 7
	maximum = 46
Slowest packet = 20866
Flit latency average = 19.9509
	minimum = 7
	maximum = 46
Slowest flit = 20866
Fragmentation average = 0
	minimum = 0
	maximum = 0
Injected packet rate average = 0.0503437
	minimum = 0.0415 (at node 2)
	maximum = 0.0585 (at node 10)
Accepted packet rate average = 0.05025
	minimum = 0.043 (at node 3)
	maximum = 0.063 (at node 4)
Injected flit rate average = 0.0503437
	minimum = 0.0415 (at node 2)
	maximum = 0.0585 (at node 10)
Accepted flit rate average= 0.05025
	minimum = 0.043 (at node 3)
	maximum = 0.063 (at node 4)
Injected packet length average = 1
Accepted packet length average = 1
Total in-flight flits = 14 (14 measured)
latency change    = 0.000917123
throughput change = 0.00912106
Draining all recorded packets ...
Draining remaining packets ...
Time taken is 3554 cycles
Class 0:
Packet latency average = 19.5151
	minimum = 7
	maximum = 44
Network latency average = 19.5151
	minimum = 7
	maximum = 44
Slowest packet = 21917
Flit latency average = 19.5151
	minimum = 7
	maximum = 44
Slowest flit = 21917
Fragmentation average = 0
	minimum = 0
	maximum = 0
Injected packet rate average = 0.052
	minimum = 0.03 (at node 1)
	maximum = 0.068 (at node 11)
Accepted packet rate average = 0.04975
	minimum = 0.026 (at node 4)
	maximum = 0.06 (at node 13)
Injected flit rate average = 0.052
	minimum = 0.03 (at node 1)
	maximum = 0.068 (at node 11)
Accepted flit rate average= 0.04975
	minimum = 0.026 (at node 4)
	maximum = 0.06 (at node 13)
Injected packet length average = 1
Accepted packet length average = 1
Total in-flight flits = 18 (0 measured)
latency change    = 1
throughput change = 1
Class 0:
Packet latency average = 19.4825
	minimum = 7
	maximum = 45
Network latency average = 19.4825
	minimum = 7
	maximum = 45
Slowest packet = 22448
Flit latency average = 19.4825
	minimum = 7
	maximum = 45
Slowest flit = 22448
Fragmentation average = 0
	minimum = 0
	maximum = 0
Injected packet rate average = 0.0510625
	minimum = 0.04 (at node 1)
	maximum = 0.07 (at node 11)
Accepted packet rate average = 0.05
	minimum = 0.039 (at node 4)
	maximum = 0.058 (at node 7)
Injected flit rate average = 0.0510625
	minimum = 0.04 (at node 1)
	maximum = 0.07 (at node 11)
Accepted flit rate average= 0.05
	minimum = 0.039 (at node 4)
	maximum = 0.058 (at node 7)
Injected packet length average = 1
Accepted packet length average = 1
Total in-flight flits = 17 (0 measured)
latency change    = 0.00167203
throughput change = 0.005
Class 0:
Packet latency average = 19.8542
	minimum = 7
	maximum = 48
Network latency average = 19.8542
	minimum = 7
	maximum = 48
Slowest packet = 22941
Flit latency average = 19.8542
	minimum = 7
	maximum = 48
Slowest flit = 22941
Fragmentation average = 0
	minimum = 0
	maximum = 0
Injected packet rate average = 0.048375
	minimum = 0.034 (at node 0)
	maximum = 0.064 (at node 6)
Accepted packet rate average = 0.048875
	minimum = 0.03 (at node 15)
	maximum = 0.066 (at node 3)
Injected flit rate average = 0.048375
	minimum = 0.034 (at node 0)
	maximum = 0.064 (at node 6)
Accepted flit rate average= 0.048875
	minimum = 0.03 (at node 15)
	maximum = 0.066 (at node 3)
Injected packet length average = 1
Accepted packet length average = 1
Total in-flight flits = 13 (0 measured)
latency change    = 0.0187225
throughput change = 0.0230179
Warmed up ...Time used is 1500 cycles
Class 0:
Packet latency average = 19.7344
	minimum = 7
	maximum = 49
Network latency average = 19.7344
	minimum = 7
	maximum = 49
Slowest packet = 23104
Flit latency average = 19.7154
	minimum = 7
	maximum = 49
Slowest flit = 23104
Fragmentation average = 0
	minimum = 0
	maximum = 0
Injected packet rate average = 0.05
	minimum = 0.04 (at node 10)
	maximum = 0.066 (at node 0)
Accepted packet rate average = 0.049625
	minimum = 0.03 (at node 5)
	maximum = 0.064 (at node 6)
Injected flit rate average = 0.05
	minimum = 0.04 (at node 10)
	maximum = 0.066 (at node 0)
Accepted flit rate average= 0.049625
	minimum = 0.03 (at node 5)
	maximum = 0.064 (at node 6)
Injected packet length average = 1
Accepted packet length average = 1
Total in-flight flits = 16 (16 measured)
latency change    = 0.0060729
throughput change = 0.0151134
Class 0:
Packet latency average = 19.9545
	minimum = 7
	maximum = 49
Network latency average = 19.9545
	minimum = 7
	maximum = 49
Slowest packet = 23104
Flit latency average = 19.9422
	minimum = 7
	maximum = 49
Slowest flit = 23104
Fragmentation average = 0
	minimum = 0
	maximum = 0
Injected packet rate average = 0.053125
	minimum = 0.036 (at node 10)
	maximum = 0.065 (at node 0)
Accepted packet rate average = 0.053
	minimum = 0.043 (at node 5)
	maximum = 0.065 (at node 6)
Injected flit rate average = 0.053125
	minimum = 0.036 (at node 10)
	maximum = 0.065 (at node 0)
Accepted flit rate average= 0.053
	minimum = 0.043 (at node 5)
	maximum = 0.065 (at node 6)
Injected packet length average = 1
Accepted packet length average = 1
Total in-flight flits = 15 (15 measured)
latency change    = 0.0110309
throughput change = 0.0636792
Class 0:
Packet latency average = 20.0158
	minimum = 7
	maximum = 50
Network latency average = 20.0158
	minimum = 7
	maximum = 50
Slowest packet = 24065
Flit latency average = 20.007
	minimum = 7
	maximum = 50
Slowest flit = 24065
Fragmentation average = 0
	minimum = 0
	maximum = 0
Injected packet rate average = 0.0534583
	minimum = 0.042 (at node 1)
	maximum = 0.064 (at node 8)
Accepted packet rate average = 0.05325
	minimum = 0.0473333 (at node 12)
	maximum = 0.0686667 (at node 6)
Injected flit rate average = 0.0534583
	minimum = 0.042 (at node 1)
	maximum = 0.064 (at node 8)
Accepted flit rate average= 0.05325
	minimum = 0.0473333 (at node 12)
	maximum = 0.0686667 (at node 6)
Injected packet length average = 1
Accepted packet length average = 1
Total in-flight flits = 18 (18 measured)
latency change    = 0.00306354
throughput change = 0.00469484
Class 0:
Packet latency average = 19.9953
	minimum = 7
	maximum = 50
Network latency average = 19.9953
	minimum = 7
	maximum = 50
Slowest packet = 24065
Flit latency average = 19.989
	minimum = 7
	maximum = 50
Slowest flit = 24065
Fragmentation average = 0
	minimum = 0
	maximum = 0
Injected packet rate average = 0.054125
	minimum = 0.0465 (at node 5)
	maximum = 0.0625 (at node 14)
Accepted packet rate average = 0.0538125
	minimum = 0.0465 (at node 8)
	maximum = 0.065 (at node 6)
Injected flit rate average = 0.054125
	minimum = 0.0465 (at node 5)
	maximum = 0.0625 (at node 14)
Accepted flit rate average= 0.0538125
	minimum = 0.0465 (at node 8)
	maximum = 0.065 (at node 6)
Injected packet length average = 1
Accepted packet length average = 1
Total in-flight flits = 23 (23 measured)
latency change    = 0.00102481
throughput change = 0.010453
Class 0:
Packet latency average = 20.0081
	minimum = 7
	maximum = 55
Network latency average = 20.0081
	minimum = 7
	maximum = 55
Slowest packet = 24962
Flit latency average = 20.0028
	minimum = 7
	maximum = 55
Slowest flit = 24962
Fragmentation average = 0
	minimum = 0
	maximum = 0
Injected packet rate average = 0.0532
	minimum = 0.0452 (at node 5)
	maximum = 0.062 (at node 14)
Accepted packet rate average = 0.0531
	minimum = 0.0452 (at node 13)
	maximum = 0.0644 (at node 6)
Injected flit rate average = 0.0532
	minimum = 0.0452 (at node 5)
	maximum = 0.062 (at node 14)
Accepted flit rate average= 0.0531
	minimum = 0.0452 (at node 13)
	maximum = 0.0644 (at node 6)
Injected packet length average = 1
Accepted packet length average = 1
Total in-flight flits = 17 (17 measured)
latency change    = 0.000636452
throughput change = 0.0134181
Draining all recorded packets ...
Draining remaining packets ...
Time taken is 4063 cycles
Class 0:
Packet latency average = 20.2803
	minimum = 7
	maximum = 40
Network latency average = 20.2803
	minimum = 7
	maximum = 40
Slowest packet = 25258
Flit latency average = 20.2803
	minimum = 7
	maximum = 40
Slowest flit = 25258
Fragmentation average = 0
	minimum = 0
	maximum = 0
Injected packet rate average = 0.04825
	minimum = 0.034 (at node 8)
	maximum = 0.078 (at node 13)
Accepted packet rate average = 0.046375
	minimum = 0.04 (at node 0)
	maximum = 0.056 (at node 2)
Injected flit rate average = 0.04825
	minimum = 0.034 (at node 8)
	maximum = 0.078 (at node 13)
Accepted flit rate average= 0.046375
	minimum = 0.04 (at node 0)
	maximum = 0.056 (at node 2)
Injected packet length average = 1
Accepted packet length average = 1
Total in-flight flits = 15 (0 measured)
latency change    = 1
throughput change = 1
Class 0:
Packet latency average = 20.1769
	minimum = 7
	maximum = 40
Network latency average = 20.1769
	minimum = 7
	maximum = 40
Slowest packet = 25258
Flit latency average = 20.1769
	minimum = 7
	maximum = 40
Slowest flit = 25258
Fragmentation average = 0
	minimum = 0
	maximum = 0
Injected packet rate average = 0.0498125
	minimum = 0.04 (at node 5)
	maximum = 0.069 (at node 13)
Accepted packet rate average = 0.04875
	minimum = 0.042 (at node 14)
	maximum = 0.054 (at node 2)
Injected flit rate average = 0.0498125
	minimum = 0.04 (at node 5)
	maximum = 0.069 (at node 13)
Accepted flit rate average= 0.04875
	minimum = 0.042 (at node 14)
	maximum = 0.054 (at node 2)
Injected packet length average = 1
Accepted packet length average = 1
Total in-flight flits = 17 (0 measured)
latency change    = 0.00512468
throughput change = 0.0487179
Class 0:
Packet latency average = 19.9681
	minimum = 7
	maximum = 42
Network latency average = 19.9681
	minimum = 7
	maximum = 42
Slowest packet = 26222
Flit latency average = 19.9681
	minimum = 7
	maximum = 42
Slowest flit = 26222
Fragmentation average = 0
	minimum = 0
	maximum = 0
Injected packet rate average = 0.05125
	minimum = 0.03 (at node 10)
	maximum = 0.062 (at node 9)
Accepted packet rate average = 0.051
	minimum = 0.038 (at node 5)
	maximum = 0.068 (at node 13)
Injected flit rate average = 0.05125
	minimum = 0.03 (at node 10)
	maximum = 0.062 (at node 9)
Accepted flit rate average= 0.051
	minimum = 0.038 (at node 5)
	maximum = 0.068 (at node 13)
Injected packet length average = 1
Accepted packet length average = 1
Total in-flight flits = 19 (0 measured)
latency change    = 0.0104559
throughput change = 0.0441176
Warmed up ...Time used is 1500 cycles
Class 0:
Packet latency average = 19.1896
	minimum = 7
	maximum = 46
Network latency average = 19.1896
	minimum = 7
	maximum = 46
Slowest packet = 26501
Flit latency average = 19.5039
	minimum = 7
	maximum = 46
Slowest flit = 26501
Fragmentation average = 0
	minimum = 0
	maximum = 0
Injected packet rate average = 0.048375
	minimum = 0.036 (at node 2)
	maximum = 0.062 (at node 6)
Accepted packet rate average = 0.047875
	minimum = 0.024 (at node 0)
	maximum = 0.062 (at node 13)
Injected flit rate average = 0.048375
	minimum = 0.036 (at node 2)
	maximum = 0.062 (at node 6)
Accepted flit rate average= 0.047875
	minimum = 0.024 (at node 0)
	maximum = 0.062 (at node 13)
Injected packet length average = 1
Accepted packet length average = 1
Total in-flight flits = 23 (23 measured)
latency change    = 0.0405729
throughput change = 0.0652742
Class 0:
Packet latency average = 20.0974
	minimum = 7
	maximum = 52
Network latency average = 20.0974
	minimum = 7
	maximum = 52
Slowest packet = 26987
Flit latency average = 20.2232
	minimum = 7
	maximum = 52
Slowest flit = 26987
Fragmentation average = 0
	minimum = 0
	maximum = 0
Injected packet rate average = 0.0511875
	minimum = 0.043 (at node 2)
	maximum = 0.061 (at node 8)
Accepted packet rate average = 0.05125
	minimum = 0.036 (at node 0)
	maximum = 0.062 (at node 5)
Injected flit rate average = 0.0511875
	minimum = 0.043 (at node 2)
	maximum = 0.061 (at node 8)
Accepted flit rate average= 0.05125
	minimum = 0.036 (at node 0)
	maximum = 0.062 (at node 5)
Injected packet length average = 1
Accepted packet length average = 1
Total in-flight flits = 18 (18 measured)
latency change    = 0.045171
throughput change = 0.0658537
Class 0:
Packet latency average = 20.1211
	minimum = 7
	maximum = 52
Network latency average = 20.1211
	minimum = 7
	maximum = 52
Slowest packet = 26987
Flit latency average = 20.2056
	minimum = 7
	maximum = 52
Slowest flit = 26987
Fragmentation average = 0
	minimum = 0
	maximum = 0
Injected packet rate average = 0.05025
	minimum = 0.04 (at node 13)
	maximum = 0.0606667 (at node 8)
Accepted packet rate average = 0.0506667
	minimum = 0.0386667 (at node 2)
	maximum = 0.0633333 (at node 5)
Injected flit rate average = 0.05025
	minimum = 0.04 (at node 13)
	maximum = 0.0606667 (at node 8)
Accepted flit rate average= 0.0506667
	minimum = 0.0386667 (at node 2)
	maximum = 0.0633333 (at node 5)
Injected packet length average = 1
Accepted packet length average = 1
Total in-flight flits = 9 (9 measured)
latency change    = 0.00118074
throughput change = 0.0115132
Class 0:
Packet latency average = 19.9223
	minimum = 7
	maximum = 52
Network latency average = 19.9223
	minimum = 7
	maximum = 52
Slowest packet = 26987
Flit latency average = 19.9877
	minimum = 7
	maximum = 52
Slowest flit = 26987
Fragmentation average = 0
	minimum = 0
	maximum = 0
Injected packet rate average = 0.0506562
	minimum = 0.043 (at node 4)
	maximum = 0.0605 (at node 8)
Accepted packet rate average = 0.0508438
	minimum = 0.042 (at node 0)
	maximum = 0.0625 (at node 5)
Injected flit rate average = 0.0506562
	minimum = 0.043 (at node 4)
	maximum = 0.0605 (at node 8)
Accepted flit rate average= 0.0508438
	minimum = 0.042 (at node 0)
	maximum = 0.0625 (at node 5)
Injected packet length average = 1
Accepted packet length average = 1
Total in-flight flits = 13 (13 measured)
latency change    = 0.00998242
throughput change = 0.00348289
Class 0:
Packet latency average = 20.0845
	minimum = 7
	maximum = 52
Network latency average = 20.0845
	minimum = 7
	maximum = 52
Slowest packet = 26987
Flit latency average = 20.1357
	minimum = 7
	maximum = 52
Slowest flit = 26987
Fragmentation average = 0
	minimum = 0
	maximum = 0
Injected packet rate average = 0.050575
	minimum = 0.0428 (at node 9)
	maximum = 0.0628 (at node 8)
Accepted packet rate average = 0.050475
	minimum = 0.0436 (at node 0)
	maximum = 0.0596 (at node 5)
Injected flit rate average = 0.050575
	minimum = 0.0428 (at node 9)
	maximum = 0.0628 (at node 8)
Accepted flit rate average= 0.050475
	minimum = 0.0436 (at node 0)
	maximum = 0.0596 (at node 5)
Injected packet length average = 1
Accepted packet length average = 1
Total in-flight flits = 23 (23 measured)
latency change    = 0.00807769
throughput change = 0.0073056
Draining all recorded packets ...
Draining remaining packets ...
Time taken is 4060 cycles
Class 0:
Packet latency average = 19.5964
	minimum = 7
	maximum = 41
Network latency average = 19.5964
	minimum = 7
	maximum = 41
Slowest packet = 28728
Flit latency average = 19.5964
	minimum = 7
	maximum = 41
Slowest flit = 28728
Fragmentation average = 0
	minimum = 0
	maximum = 0
Injected packet rate average = 0.049375
	minimum = 0.024 (at node 15)
	maximum = 0.064 (at node 9)
Accepted packet rate average = 0.048
	minimum = 0.03 (at node 12)
	maximum = 0.078 (at node 9)
Injected flit rate average = 0.049375
	minimum = 0.024 (at node 15)
	maximum = 0.064 (at node 9)
Accepted flit rate average= 0.048
	minimum = 0.03 (at node 12)
	maximum = 0.078 (at node 9)
Injected packet length average = 1
Accepted packet length average = 1
Total in-flight flits = 11 (0 measured)
latency change    = 1
throughput change = 1
Class 0:
Packet latency average = 19.9329
	minimum = 7
	maximum = 45
Network latency average = 19.9329
	minimum = 7
	maximum = 45
Slowest packet = 29026
Flit latency average = 19.9329
	minimum = 7
	maximum = 45
Slowest flit = 29026
Fragmentation average = 0
	minimum = 0
	maximum = 0
Injected packet rate average = 0.049125
	minimum = 0.033 (at node 11)
	maximum = 0.057 (at node 10)
Accepted packet rate average = 0.0484375
	minimum = 0.036 (at node 14)
	maximum = 0.063 (at node 9)
Injected flit rate average = 0.049125
	minimum = 0.033 (at node 11)
	maximum = 0.057 (at node 10)
Accepted flit rate average= 0.0484375
	minimum = 0.036 (at node 14)
	maximum = 0.063 (at node 9)
Injected packet length average = 1
Accepted packet length average = 1
Total in-flight flits = 11 (0 measured)
latency change    = 0.0168841
throughput change = 0.00903226
Class 0:
Packet latency average = 19.7005
	minimum = 7
	maximum = 45
Network latency average = 19.6979
	minimum = 7
	maximum = 45
Slowest packet = 29222
Flit latency average = 19.6979
	minimum = 7
	maximum = 45
Slowest flit = 29222
Fragmentation average = 0
	minimum = 0
	maximum = 0
Injected packet rate average = 0.047625
	minimum = 0.032 (at node 11)
	maximum = 0.066 (at node 10)
Accepted packet rate average = 0.04675
	minimum = 0.032 (at node 6)
	maximum = 0.062 (at node 14)
Injected flit rate average = 0.047625
	minimum = 0.032 (at node 11)
	maximum = 0.066 (at node 10)
Accepted flit rate average= 0.04675
	minimum = 0.032 (at node 6)
	maximum = 0.062 (at node 14)
Injected packet length average = 1
Accepted packet length average = 1
Total in-flight flits = 18 (0 measured)
latency change    = 0.011795
throughput change = 0.0360963
Warmed up ...Time used is 1500 cycles
Class 0:
Packet latency average = 20.21
	minimum = 7
	maximum = 43
Network latency average = 20.21
	minimum = 7
	maximum = 43
Slowest packet = 29720
Flit latency average = 20.1805
	minimum = 7
	maximum = 43
Slowest flit = 29720
Fragmentation average = 0
	minimum = 0
	maximum = 0
Injected packet rate average = 0.049
	minimum = 0.032 (at node 3)
	maximum = 0.072 (at node 14)
Accepted packet rate average = 0.049875
	minimum = 0.034 (at node 14)
	maximum = 0.064 (at node 3)
Injected flit rate average = 0.049
	minimum = 0.032 (at node 3)
	maximum = 0.072 (at node 14)
Accepted flit rate average= 0.049875
	minimum = 0.034 (at node 14)
	maximum = 0.064 (at node 3)
Injected packet length average = 1
Accepted packet length average = 1
Total in-flight flits = 11 (11 measured)
latency change    = 0.0252073
throughput change = 0.0626566
Class 0:
Packet latency average = 20.0091
	minimum = 7
	maximum = 43
Network latency average = 20.0091
	minimum = 7
	maximum = 43
Slowest packet = 29720
Flit latency average = 19.9987
	minimum = 7
	maximum = 43
Slowest flit = 29720
Fragmentation average = 0
	minimum = 0
	maximum = 0
Injected packet rate average = 0.0486875
	minimum = 0.043 (at node 10)
	maximum = 0.059 (at node 14)
Accepted packet rate average = 0.0490625
	minimum = 0.038 (at node 14)
	maximum = 0.056 (at node 3)
Injected flit rate average = 0.0486875
	minimum = 0.043 (at node 10)
	maximum = 0.059 (at node 14)
Accepted flit rate average= 0.0490625
	minimum = 0.038 (at node 14)
	maximum = 0.056 (at node 3)
Injected packet length average = 1
Accepted packet length average = 1
Total in-flight flits = 12 (12 measured)
latency change    = 0.0100378
throughput change = 0.0165605
Class 0:
Packet latency average = 20.1045
	minimum = 7
	maximum = 43
Network latency average = 20.1045
	minimum = 7
	maximum = 43
Slowest packet = 29720
Flit latency average = 20.0962
	minimum = 7
	maximum = 43
Slowest flit = 29720
Fragmentation average = 0
	minimum = 0
	maximum = 0
Injected packet rate average = 0.05
	minimum = 0.0433333 (at node 6)
	maximum = 0.0593333 (at node 11)
Accepted packet rate average = 0.0497917
	minimum = 0.0393333 (at node 14)
	maximum = 0.0613333 (at node 15)
Injected flit rate average = 0.05
	minimum = 0.0433333 (at node 6)
	maximum = 0.0593333 (at node 11)
Accepted flit rate average= 0.0497917
	minimum = 0.0393333 (at node 14)
	maximum = 0.0613333 (at node 15)
Injected packet length average = 1
Accepted packet length average = 1
Total in-flight flits = 23 (23 measured)
latency change    = 0.00474404
throughput change = 0.0146444
Class 0:
Packet latency average = 20.0873
	minimum = 7
	maximum = 45
Network latency average = 20.0873
	minimum = 7
	maximum = 45
Slowest packet = 31105
Flit latency average = 20.0813
	minimum = 7
	maximum = 45
Slowest flit = 31105
Fragmentation average = 0
	minimum = 0
	maximum = 0
Injected packet rate average = 0.0496562
	minimum = 0.041 (at node 2)
	maximum = 0.0595 (at node 11)
Accepted packet rate average = 0.0495937
	minimum = 0.043 (at node 9)
	maximum = 0.059 (at node 15)
Injected flit rate average = 0.0496562
	minimum = 0.041 (at node 2)
	maximum = 0.0595 (at node 11)
Accepted flit rate average= 0.0495937
	minimum = 0.043 (at node 9)
	maximum = 0.059 (at node 15)
Injected packet length average = 1
Accepted packet length average = 1
Total in-flight flits = 20 (20 measured)
latency change    = 0.000855575
throughput change = 0.00399076
Draining all recorded packets ...
Draining remaining packets ...
Time taken is 3556 cycles
Class 0:
Packet latency average = 19.4077
	minimum = 7
	maximum = 42
Network latency average = 19.4077
	minimum = 7
	maximum = 42
Slowest packet = 31205
Flit latency average = 19.4077
	minimum = 7
	maximum = 42
Slowest flit = 31205
Fragmentation average = 0
	minimum = 0
	maximum = 0
Injected packet rate average = 0.047875
	minimum = 0.032 (at node 2)
	maximum = 0.062 (at node 0)
Accepted packet rate average = 0.045375
	minimum = 0.03 (at node 10)
	maximum = 0.07 (at node 11)
Injected flit rate average = 0.047875
	minimum = 0.032 (at node 2)
	maximum = 0.062 (at node 0)
Accepted flit rate average= 0.045375
	minimum = 0.03 (at node 10)
	maximum = 0.07 (at node 11)
Injected packet length average = 1
Accepted packet length average = 1
Total in-flight flits = 20 (0 measured)
latency change    = 1
throughput change = 1
Class 0:
Packet latency average = 20.136
	minimum = 7
	maximum = 42
Network latency average = 20.136
	minimum = 7
	maximum = 42
Slowest packet = 31205
Flit latency average = 20.136
	minimum = 7
	maximum = 42
Slowest flit = 31205
Fragmentation average = 0
	minimum = 0
	maximum = 0
Injected packet rate average = 0.0460625
	minimum = 0.035 (at node 2)
	maximum = 0.056 (at node 15)
Accepted packet rate average = 0.0455
	minimum = 0.031 (at node 10)
	maximum = 0.059 (at node 12)
Injected flit rate average = 0.0460625
	minimum = 0.035 (at node 2)
	maximum = 0.056 (at node 15)
Accepted flit rate average= 0.0455
	minimum = 0.031 (at node 10)
	maximum = 0.059 (at node 12)
Injected packet length average = 1
Accepted packet length average = 1
Total in-flight flits = 9 (0 measured)
latency change    = 0.0361679
throughput change = 0.00274725
Class 0:
Packet latency average = 20.4118
	minimum = 7
	maximum = 44
Network latency average = 20.4118
	minimum = 7
	maximum = 44
Slowest packet = 31965
Flit latency average = 20.4118
	minimum = 7
	maximum = 44
Slowest flit = 31965
Fragmentation average = 0
	minimum = 0
	maximum = 0
Injected packet rate average = 0.049625
	minimum = 0.024 (at node 12)
	maximum = 0.062 (at node 4)
Accepted packet rate average = 0.048875
	minimum = 0.032 (at node 4)
	maximum = 0.066 (at node 12)
Injected flit rate average = 0.049625
	minimum = 0.024 (at node 12)
	maximum = 0.062 (at node 4)
Accepted flit rate average= 0.048875
	minimum = 0.032 (at node 4)
	maximum = 0.066 (at node 12)
Injected packet length average = 1
Accepted packet length average = 1
Total in-flight flits = 15 (0 measured)
latency change    = 0.0135106
throughput change = 0.0690537
Warmed up ...Time used is 1500 cycles
Class 0:
Packet latency average = 19.9233
	minimum = 7
	maximum = 41
Network latency average = 19.9233
	minimum = 7
	maximum = 41
Slowest packet = 32645
Flit latency average = 20.0222
	minimum = 7
	maximum = 41
Slowest flit = 32645
Fragmentation average = 0
	minimum = 0
	maximum = 0
Injected packet rate average = 0.050625
	minimum = 0.028 (at node 6)
	maximum = 0.066 (at node 1)
Accepted packet rate average = 0.05075
	minimum = 0.04 (at node 7)
	maximum = 0.072 (at node 1)
Injected flit rate average = 0.050625
	minimum = 0.028 (at node 6)
	maximum = 0.066 (at node 1)
Accepted flit rate average= 0.05075
	minimum = 0.04 (at node 7)
	maximum = 0.072 (at node 1)
Injected packet length average = 1
Accepted packet length average = 1
Total in-flight flits = 14 (14 measured)
latency change    = 0.0245186
throughput change = 0.0369458
Class 0:
Packet latency average = 19.8054
	minimum = 7
	maximum = 41
Network latency average = 19.8054
	minimum = 7
	maximum = 41
Slowest packet = 32645
Flit latency average = 19.858
	minimum = 7
	maximum = 41
Slowest flit = 32645
Fragmentation average = 0
	minimum = 0
	maximum = 0
Injected packet rate average = 0.0499375
	minimum = 0.035 (at node 6)
	maximum = 0.06 (at node 3)
Accepted packet rate average = 0.04975
	minimum = 0.036 (at node 4)
	maximum = 0.068 (at node 1)
Injected flit rate average = 0.0499375
	minimum = 0.035 (at node 6)
	maximum = 0.06 (at node 3)
Accepted flit rate average= 0.04975
	minimum = 0.036 (at node 4)
	maximum = 0.068 (at node 1)
Injected packet length average = 1
Accepted packet length average = 1
Total in-flight flits = 18 (18 measured)
latency change    = 0.00595272
throughput change = 0.0201005
Class 0:
Packet latency average = 19.831
	minimum = 7
	maximum = 42
Network latency average = 19.831
	minimum = 7
	maximum = 42
Slowest packet = 33141
Flit latency average = 19.8654
	minimum = 7
	maximum = 42
Slowest flit = 33141
Fragmentation average = 0
	minimum = 0
	maximum = 0
Injected packet rate average = 0.05
	minimum = 0.036 (at node 6)
	maximum = 0.0566667 (at node 3)
Accepted packet rate average = 0.0501667
	minimum = 0.04 (at node 11)
	maximum = 0.0613333 (at node 1)
Injected flit rate average = 0.05
	minimum = 0.036 (at node 6)
	maximum = 0.0566667 (at node 3)
Accepted flit rate average= 0.0501667
	minimum = 0.04 (at node 11)
	maximum = 0.0613333 (at node 1)
Injected packet length average = 1
Accepted packet length average = 1
Total in-flight flits = 11 (11 measured)
latency change    = 0.00128953
throughput change = 0.00830565
Draining all recorded packets ...
Draining remaining packets ...
Time taken is 3052 cycles
Class 0:
Packet latency average = 20.4059
	minimum = 7
	maximum = 45
Network latency average = 20.4059
	minimum = 7
	maximum = 45
Slowest packet = 33818
Flit latency average = 20.4059
	minimum = 7
	maximum = 45
Slowest flit = 33818
Fragmentation average = 0
	minimum = 0
	maximum = 0
Injected packet rate average = 0.0485
	minimum = 0.032 (at node 1)
	maximum = 0.066 (at node 0)
Accepted packet rate average = 0.0465
	minimum = 0.028 (at node 2)
	maximum = 0.068 (at node 15)
Injected flit rate average = 0.0485
	minimum = 0.032 (at node 1)
	maximum = 0.066 (at node 0)
Accepted flit rate average= 0.0465
	minimum = 0.028 (at node 2)
	maximum = 0.068 (at node 15)
Injected packet length average = 1
Accepted packet length average = 1
Total in-flight flits = 16 (0 measured)
latency change    = 1
throughput change = 1
Class 0:
Packet latency average = 20.5256
	minimum = 7
	maximum = 45
Network latency average = 20.5256
	minimum = 7
	maximum = 45
Slowest packet = 33818
Flit latency average = 20.5256
	minimum = 7
	maximum = 45
Slowest flit = 33818
Fragmentation average = 0
	minimum = 0
	maximum = 0
Injected packet rate average = 0.0486875
	minimum = 0.038 (at node 1)
	maximum = 0.059 (at node 15)
Accepted packet rate average = 0.0476875
	minimum = 0.031 (at node 2)
	maximum = 0.064 (at node 15)
Injected flit rate average = 0.0486875
	minimum = 0.038 (at node 1)
	maximum = 0.059 (at node 15)
Accepted flit rate average= 0.0476875
	minimum = 0.031 (at node 2)
	maximum = 0.064 (at node 15)
Injected packet length average = 1
Accepted packet length average = 1
Total in-flight flits = 16 (0 measured)
latency change    = 0.00582898
throughput change = 0.0249017
Class 0:
Packet latency average = 20.1654
	minimum = 7
	maximum = 51
Network latency average = 20.1654
	minimum = 7
	maximum = 51
Slowest packet = 34427
Flit latency average = 20.1654
	minimum = 7
	maximum = 51
Slowest flit = 34427
Fragmentation average = 0
	minimum = 0
	maximum = 0
Injected packet rate average = 0.049
	minimum = 0.038 (at node 0)
	maximum = 0.06 (at node 5)
Accepted packet rate average = 0.049125
	minimum = 0.022 (at node 8)
	maximum = 0.064 (at node 4)
Injected flit rate average = 0.049
	minimum = 0.038 (at node 0)
	maximum = 0.06 (at node 5)
Accepted flit rate average= 0.049125
	minimum = 0.022 (at node 8)
	maximum = 0.064 (at node 4)
Injected packet length average = 1
Accepted packet length average = 1
Total in-flight flits = 15 (0 measured)
latency change    = 0.0178604
throughput change = 0.0292621
Warmed up ...Time used is 1500 cycles
Class 0:
Packet latency average = 20.3715
	minimum = 7
	maximum = 45
Network latency average = 20.3715
	minimum = 7
	maximum = 45
Slowest packet = 35057
Flit latency average = 20.386
	minimum = 7
	maximum = 45
Slowest flit = 35057
Fragmentation average = 0
	minimum = 0
	maximum = 0
Injected packet rate average = 0.0555
	minimum = 0.038 (at node 14)
	maximum = 0.068 (at node 7)
Accepted packet rate average = 0.055375
	minimum = 0.038 (at node 8)
	maximum = 0.08 (at node 4)
Injected flit rate average = 0.0555
	minimum = 0.038 (at node 14)
	maximum = 0.068 (at node 7)
Accepted flit rate average= 0.055375
	minimum = 0.038 (at node 8)
	maximum = 0.08 (at node 4)
Injected packet length average = 1
Accepted packet length average = 1
Total in-flight flits = 16 (16 measured)
latency change    = 0.0101171
throughput change = 0.112867
Class 0:
Packet latency average = 19.9814
	minimum = 7
	maximum = 45
Network latency average = 19.9814
	minimum = 7
	maximum = 45
Slowest packet = 35057
Flit latency average = 19.9963
	minimum = 7
	maximum = 45
Slowest flit = 35057
Fragmentation average = 0
	minimum = 0
	maximum = 0
Injected packet rate average = 0.051625
	minimum = 0.043 (at node 6)
	maximum = 0.065 (at node 7)
Accepted packet rate average = 0.05125
	minimum = 0.041 (at node 7)
	maximum = 0.068 (at node 4)
Injected flit rate average = 0.051625
	minimum = 0.043 (at node 6)
	maximum = 0.065 (at node 7)
Accepted flit rate average= 0.05125
	minimum = 0.041 (at node 7)
	maximum = 0.068 (at node 4)
Injected packet length average = 1
Accepted packet length average = 1
Total in-flight flits = 21 (21 measured)
latency change    = 0.0195246
throughput change = 0.0804878
Class 0:
Packet latency average = 19.9406
	minimum = 7
	maximum = 45
Network latency average = 19.9406
	minimum = 7
	maximum = 45
Slowest packet = 35057
Flit latency average = 19.9511
	minimum = 7
	maximum = 45
Slowest flit = 35057
Fragmentation average = 0
	minimum = 0
	maximum = 0
Injected packet rate average = 0.0515417
	minimum = 0.0433333 (at node 13)
	maximum = 0.0606667 (at node 7)
Accepted packet rate average = 0.051125
	minimum = 0.0433333 (at node 13)
	maximum = 0.0613333 (at node 1)
Injected flit rate average = 0.0515417
	minimum = 0.0433333 (at node 13)
	maximum = 0.0606667 (at node 7)
Accepted flit rate average= 0.051125
	minimum = 0.0433333 (at node 13)
	maximum = 0.0613333 (at node 1)
Injected packet length average = 1
Accepted packet length average = 1
Total in-flight flits = 25 (25 measured)
latency change    = 0.00204469
throughput change = 0.00244499
Class 0:
Packet latency average = 19.9343
	minimum = 7
	maximum = 45
Network latency average = 19.9343
	minimum = 7
	maximum = 45
Slowest packet = 35057
Flit latency average = 19.9422
	minimum = 7
	maximum = 45
Slowest flit = 35057
Fragmentation average = 0
	minimum = 0
	maximum = 0
Injected packet rate average = 0.0514375
	minimum = 0.0435 (at node 13)
	maximum = 0.0565 (at node 0)
Accepted packet rate average = 0.0513438
	minimum = 0.044 (at node 8)
	maximum = 0.0635 (at node 1)
Injected flit rate average = 0.0514375
	minimum = 0.0435 (at node 13)
	maximum = 0.0565 (at node 0)
Accepted flit rate average= 0.0513438
	minimum = 0.044 (at node 8)
	maximum = 0.0635 (at node 1)
Injected packet length average = 1
Accepted packet length average = 1
Total in-flight flits = 18 (18 measured)
latency change    = 0.000316985
throughput change = 0.0042605
Class 0:
Packet latency average = 19.9283
	minimum = 7
	maximum = 51
Network latency average = 19.9283
	minimum = 7
	maximum = 51
Slowest packet = 36545
Flit latency average = 19.9347
	minimum = 7
	maximum = 51
Slowest flit = 36545
Fragmentation average = 0
	minimum = 0
	maximum = 0
Injected packet rate average = 0.05125
	minimum = 0.0448 (at node 5)
	maximum = 0.0564 (at node 12)
Accepted packet rate average = 0.051275
	minimum = 0.0444 (at node 8)
	maximum = 0.0584 (at node 1)
Injected flit rate average = 0.05125
	minimum = 0.0448 (at node 5)
	maximum = 0.0564 (at node 12)
Accepted flit rate average= 0.051275
	minimum = 0.0444 (at node 8)
	maximum = 0.0584 (at node 1)
Injected packet length average = 1
Accepted packet length average = 1
Total in-flight flits = 14 (14 measured)
latency change    = 0.000300298
throughput change = 0.00134081
Draining all recorded packets ...
Draining remaining packets ...
Time taken is 4062 cycles
Class 0:
Packet latency average = 20.6016
	minimum = 7
	maximum = 41
Network latency average = 20.6016
	minimum = 7
	maximum = 41
Slowest packet = 36978
Flit latency average = 20.6016
	minimum = 7
	maximum = 41
Slowest flit = 36978
Fragmentation average = 0
	minimum = 0
	maximum = 0
Injected packet rate average = 0.047625
	minimum = 0.03 (at node 4)
	maximum = 0.06 (at node 3)
Accepted packet rate average = 0.0455
	minimum = 0.032 (at node 4)
	maximum = 0.066 (at node 3)
Injected flit rate average = 0.047625
	minimum = 0.03 (at node 4)
	maximum = 0.06 (at node 3)
Accepted flit rate average= 0.0455
	minimum = 0.032 (at node 4)
	maximum = 0.066 (at node 3)
Injected packet length average = 1
Accepted packet length average = 1
Total in-flight flits = 17 (0 measured)
latency change    = 1
throughput change = 1
Class 0:
Packet latency average = 20.0902
	minimum = 7
	maximum = 41
Network latency average = 20.0902
	minimum = 7
	maximum = 41
Slowest packet = 36978
Flit latency average = 20.0902
	minimum = 7
[...]
Slowest flit = 126923
Fragmentation average = 0
	minimum = 0
	maximum = 0
Injected packet rate average = 0.050225
	minimum = 0.0448 (at node 8)
	maximum = 0.056 (at node 2)
Accepted packet rate average = 0.0504
	minimum = 0.0408 (at node 10)
	maximum = 0.0568 (at node 14)
Injected flit rate average = 0.050225
	minimum = 0.0448 (at node 8)
	maximum = 0.056 (at node 2)
Accepted flit rate average= 0.0504
	minimum = 0.0408 (at node 10)
	maximum = 0.0568 (at node 14)
Injected packet length average = 1
Accepted packet length average = 1
Total in-flight flits = 16 (16 measured)
latency change    = 6.27985e-05
throughput change = 0.00260417
Draining all recorded packets ...
Draining remaining packets ...
Time taken is 4066 cycles
Class 0:
Packet latency average = 19.9863
	minimum = 7
	maximum = 47
Network latency average = 19.9863
	minimum = 7
	maximum = 47
Slowest packet = 127821
Flit latency average = 19.9863
	minimum = 7
	maximum = 47
Slowest flit = 127821
Fragmentation average = 0
	minimum = 0
	maximum = 0
Injected packet rate average = 0.047125
	minimum = 0.03 (at node 5)
	maximum = 0.06 (at node 4)
Accepted packet rate average = 0.045625
	minimum = 0.028 (at node 5)
	maximum = 0.06 (at node 0)
Injected flit rate average = 0.047125
	minimum = 0.03 (at node 5)
	maximum = 0.06 (at node 4)
Accepted flit rate average= 0.045625
	minimum = 0.028 (at node 5)
	maximum = 0.06 (at node 0)
Injected packet length average = 1
Accepted packet length average = 1
Total in-flight flits = 12 (0 measured)
latency change    = 1
throughput change = 1
Class 0:
Packet latency average = 20.2457
	minimum = 7
	maximum = 47
Network latency average = 20.2457
	minimum = 7
	maximum = 47
Slowest packet = 127821
Flit latency average = 20.2457
	minimum = 7
	maximum = 47
Slowest flit = 127821
Fragmentation average = 0
	minimum = 0
	maximum = 0
Injected packet rate average = 0.0480625
	minimum = 0.037 (at node 1)
	maximum = 0.065 (at node 10)
Accepted packet rate average = 0.0470625
	minimum = 0.031 (at node 14)
	maximum = 0.06 (at node 4)
Injected flit rate average = 0.0480625
	minimum = 0.037 (at node 1)
	maximum = 0.065 (at node 10)
Accepted flit rate average= 0.0470625
	minimum = 0.031 (at node 14)
	maximum = 0.06 (at node 4)
Injected packet length average = 1
Accepted packet length average = 1
Total in-flight flits = 16 (0 measured)
latency change    = 0.0128117
throughput change = 0.0305445
Class 0:
Packet latency average = 19.902
	minimum = 7
	maximum = 41
Network latency average = 19.902
	minimum = 7
	maximum = 41
Slowest packet = 128545
Flit latency average = 19.902
	minimum = 7
	maximum = 41
Slowest flit = 128545
Fragmentation average = 0
	minimum = 0
	maximum = 0
Injected packet rate average = 0.050625
	minimum = 0.036 (at node 15)
	maximum = 0.072 (at node 14)
Accepted packet rate average = 0.051
	minimum = 0.026 (at node 9)
	maximum = 0.074 (at node 13)
Injected flit rate average = 0.050625
	minimum = 0.036 (at node 15)
	maximum = 0.072 (at node 14)
Accepted flit rate average= 0.051
	minimum = 0.026 (at node 9)
	maximum = 0.074 (at node 13)
Injected packet length average = 1
Accepted packet length average = 1
Total in-flight flits = 13 (0 measured)
latency change    = 0.0172708
throughput change = 0.0772059
Warmed up ...Time used is 1500 cycles
Class 0:
Packet latency average = 20.0359
	minimum = 7
	maximum = 41
Network latency average = 20.0359
	minimum = 7
	maximum = 41
Slowest packet = 129016
Flit latency average = 20.1707
	minimum = 7
	maximum = 41
Slowest flit = 129016
Fragmentation average = 0
	minimum = 0
	maximum = 0
Injected packet rate average = 0.04675
	minimum = 0.032 (at node 3)
	maximum = 0.064 (at node 1)
Accepted packet rate average = 0.046875
	minimum = 0.028 (at node 7)
	maximum = 0.064 (at node 13)
Injected flit rate average = 0.04675
	minimum = 0.032 (at node 3)
	maximum = 0.064 (at node 1)
Accepted flit rate average= 0.046875
	minimum = 0.028 (at node 7)
	maximum = 0.064 (at node 13)
Injected packet length average = 1
Accepted packet length average = 1
Total in-flight flits = 12 (12 measured)
latency change    = 0.00668554
throughput change = 0.088
Class 0:
Packet latency average = 19.6427
	minimum = 7
	maximum = 50
Network latency average = 19.6427
	minimum = 7
	maximum = 50
Slowest packet = 129628
Flit latency average = 19.7156
	minimum = 7
	maximum = 50
Slowest flit = 129628
Fragmentation average = 0
	minimum = 0
	maximum = 0
Injected packet rate average = 0.0480625
	minimum = 0.037 (at node 2)
	maximum = 0.061 (at node 1)
Accepted packet rate average = 0.0476875
	minimum = 0.038 (at node 9)
	maximum = 0.06 (at node 13)
Injected flit rate average = 0.0480625
	minimum = 0.037 (at node 2)
	maximum = 0.061 (at node 1)
Accepted flit rate average= 0.0476875
	minimum = 0.038 (at node 9)
	maximum = 0.06 (at node 13)
Injected packet length average = 1
Accepted packet length average = 1
Total in-flight flits = 19 (19 measured)
latency change    = 0.0200199
throughput change = 0.017038
Class 0:
Packet latency average = 19.6303
	minimum = 7
	maximum = 50
Network latency average = 19.6303
	minimum = 7
	maximum = 50
Slowest packet = 129628
Flit latency average = 19.6781
	minimum = 7
	maximum = 50
Slowest flit = 129628
Fragmentation average = 0
	minimum = 0
	maximum = 0
Injected packet rate average = 0.0487083
	minimum = 0.0413333 (at node 10)
	maximum = 0.0613333 (at node 6)
Accepted packet rate average = 0.0486667
	minimum = 0.04 (at node 12)
	maximum = 0.056 (at node 6)
Injected flit rate average = 0.0487083
	minimum = 0.0413333 (at node 10)
	maximum = 0.0613333 (at node 6)
Accepted flit rate average= 0.0486667
	minimum = 0.04 (at node 12)
	maximum = 0.056 (at node 6)
Injected packet length average = 1
Accepted packet length average = 1
Total in-flight flits = 14 (14 measured)
latency change    = 0.000629824
throughput change = 0.0201199
Class 0:
Packet latency average = 19.6883
	minimum = 7
	maximum = 50
Network latency average = 19.6883
	minimum = 7
	maximum = 50
Slowest packet = 129628
Flit latency average = 19.7237
	minimum = 7
	maximum = 50
Slowest flit = 129628
Fragmentation average = 0
	minimum = 0
	maximum = 0
Injected packet rate average = 0.0487187
	minimum = 0.0435 (at node 2)
	maximum = 0.06 (at node 6)
Accepted packet rate average = 0.048625
	minimum = 0.0395 (at node 12)
	maximum = 0.0545 (at node 14)
Injected flit rate average = 0.0487187
	minimum = 0.0435 (at node 2)
	maximum = 0.06 (at node 6)
Accepted flit rate average= 0.048625
	minimum = 0.0395 (at node 12)
	maximum = 0.0545 (at node 14)
Injected packet length average = 1
Accepted packet length average = 1
Total in-flight flits = 16 (16 measured)
latency change    = 0.00294422
throughput change = 0.000856898
Draining all recorded packets ...
Draining remaining packets ...
Time taken is 3567 cycles
Class 0:
Packet latency average = 18.8395
	minimum = 7
	maximum = 38
Network latency average = 18.8395
	minimum = 7
	maximum = 38
Slowest packet = 130785
Flit latency average = 18.8395
	minimum = 7
	maximum = 38
Slowest flit = 130785
Fragmentation average = 0
	minimum = 0
	maximum = 0
Injected packet rate average = 0.04575
	minimum = 0.028 (at node 14)
	maximum = 0.058 (at node 2)
Accepted packet rate average = 0.043625
	minimum = 0.034 (at node 6)
	maximum = 0.058 (at node 5)
Injected flit rate average = 0.04575
	minimum = 0.028 (at node 14)
	maximum = 0.058 (at node 2)
Accepted flit rate average= 0.043625
	minimum = 0.034 (at node 6)
	maximum = 0.058 (at node 5)
Injected packet length average = 1
Accepted packet length average = 1
Total in-flight flits = 17 (0 measured)
latency change    = 1
throughput change = 1
Class 0:
Packet latency average = 19.3214
	minimum = 7
	maximum = 47
Network latency average = 19.3214
	minimum = 7
	maximum = 47
Slowest packet = 130912
Flit latency average = 19.3214
	minimum = 7
	maximum = 47
Slowest flit = 130912
Fragmentation average = 0
	minimum = 0
	maximum = 0
Injected packet rate average = 0.0501875
	minimum = 0.04 (at node 9)
	maximum = 0.06 (at node 11)
Accepted packet rate average = 0.0488125
	minimum = 0.034 (at node 12)
	maximum = 0.059 (at node 8)
Injected flit rate average = 0.0501875
	minimum = 0.04 (at node 9)
	maximum = 0.06 (at node 11)
Accepted flit rate average= 0.0488125
	minimum = 0.034 (at node 12)
	maximum = 0.059 (at node 8)
Injected packet length average = 1
Accepted packet length average = 1
Total in-flight flits = 22 (0 measured)
latency change    = 0.0249382
throughput change = 0.106274
Class 0:
Packet latency average = 19.9322
	minimum = 7
	maximum = 45
Network latency average = 19.9322
	minimum = 7
	maximum = 45
Slowest packet = 131340
Flit latency average = 19.9322
	minimum = 7
	maximum = 45
Slowest flit = 131340
Fragmentation average = 0
	minimum = 0
	maximum = 0
Injected packet rate average = 0.050625
	minimum = 0.034 (at node 12)
	maximum = 0.076 (at node 0)
Accepted packet rate average = 0.051625
	minimum = 0.032 (at node 11)
	maximum = 0.07 (at node 5)
Injected flit rate average = 0.050625
	minimum = 0.034 (at node 12)
	maximum = 0.076 (at node 0)
Accepted flit rate average= 0.051625
	minimum = 0.032 (at node 11)
	maximum = 0.07 (at node 5)
Injected packet length average = 1
Accepted packet length average = 1
Total in-flight flits = 14 (0 measured)
latency change    = 0.0306449
throughput change = 0.0544794
Warmed up ...Time used is 1500 cycles
Class 0:
Packet latency average = 19.942
	minimum = 7
	maximum = 44
Network latency average = 19.942
	minimum = 7
	maximum = 44
Slowest packet = 131775
Flit latency average = 20.0372
	minimum = 7
	maximum = 44
Slowest flit = 131775
Fragmentation average = 0
	minimum = 0
	maximum = 0
Injected packet rate average = 0.047125
	minimum = 0.032 (at node 1)
	maximum = 0.062 (at node 3)
Accepted packet rate average = 0.047
	minimum = 0.034 (at node 14)
	maximum = 0.064 (at node 11)
Injected flit rate average = 0.047125
	minimum = 0.032 (at node 1)
	maximum = 0.062 (at node 3)
Accepted flit rate average= 0.047
	minimum = 0.034 (at node 14)
	maximum = 0.064 (at node 11)
Injected packet length average = 1
Accepted packet length average = 1
Total in-flight flits = 15 (15 measured)
latency change    = 0.000490701
throughput change = 0.0984043
Class 0:
Packet latency average = 20.116
	minimum = 7
	maximum = 45
Network latency average = 20.116
	minimum = 7
	maximum = 45
Slowest packet = 132096
Flit latency average = 20.1588
	minimum = 7
	maximum = 45
Slowest flit = 132096
Fragmentation average = 0
	minimum = 0
	maximum = 0
Injected packet rate average = 0.0495
	minimum = 0.039 (at node 0)
	maximum = 0.06 (at node 3)
Accepted packet rate average = 0.0488125
	minimum = 0.037 (at node 0)
	maximum = 0.06 (at node 2)
Injected flit rate average = 0.0495
	minimum = 0.039 (at node 0)
	maximum = 0.06 (at node 3)
Accepted flit rate average= 0.0488125
	minimum = 0.037 (at node 0)
	maximum = 0.06 (at node 2)
Injected packet length average = 1
Accepted packet length average = 1
Total in-flight flits = 25 (25 measured)
latency change    = 0.00865218
throughput change = 0.0371319
Class 0:
Packet latency average = 20.2136
	minimum = 7
	maximum = 49
Network latency average = 20.2136
	minimum = 7
	maximum = 49
Slowest packet = 132496
Flit latency average = 20.2405
	minimum = 7
	maximum = 49
Slowest flit = 132496
Fragmentation average = 0
	minimum = 0
	maximum = 0
Injected packet rate average = 0.0495
	minimum = 0.0426667 (at node 10)
	maximum = 0.0573333 (at node 3)
Accepted packet rate average = 0.0495417
	minimum = 0.0413333 (at node 8)
	maximum = 0.0566667 (at node 7)
Injected flit rate average = 0.0495
	minimum = 0.0426667 (at node 10)
	maximum = 0.0573333 (at node 3)
Accepted flit rate average= 0.0495417
	minimum = 0.0413333 (at node 8)
	maximum = 0.0566667 (at node 7)
Injected packet length average = 1
Accepted packet length average = 1
Total in-flight flits = 13 (13 measured)
latency change    = 0.00482746
throughput change = 0.0147183
Class 0:
Packet latency average = 20.1893
	minimum = 7
	maximum = 53
Network latency average = 20.1893
	minimum = 7
	maximum = 53
Slowest packet = 132916
Flit latency average = 20.2095
	minimum = 7
	maximum = 53
Slowest flit = 132916
Fragmentation average = 0
	minimum = 0
	maximum = 0
Injected packet rate average = 0.0502187
	minimum = 0.044 (at node 4)
	maximum = 0.059 (at node 5)
Accepted packet rate average = 0.0499687
	minimum = 0.042 (at node 8)
	maximum = 0.056 (at node 7)
Injected flit rate average = 0.0502187
	minimum = 0.044 (at node 4)
	maximum = 0.059 (at node 5)
Accepted flit rate average= 0.0499687
	minimum = 0.042 (at node 8)
	maximum = 0.056 (at node 7)
Injected packet length average = 1
Accepted packet length average = 1
Total in-flight flits = 22 (22 measured)
latency change    = 0.00120572
throughput change = 0.00854701
Draining all recorded packets ...
Draining remaining packets ...
Time taken is 3571 cycles
Class 0:
Packet latency average = 20.125
	minimum = 7
	maximum = 38
Network latency average = 20.125
	minimum = 7
	maximum = 38
Slowest packet = 133357
Flit latency average = 20.125
	minimum = 7
	maximum = 38
Slowest flit = 133357
Fragmentation average = 0
	minimum = 0
	maximum = 0
Injected packet rate average = 0.048875
	minimum = 0.022 (at node 1)
	maximum = 0.076 (at node 0)
Accepted packet rate average = 0.046
	minimum = 0.026 (at node 3)
	maximum = 0.06 (at node 6)
Injected flit rate average = 0.048875
	minimum = 0.022 (at node 1)
	maximum = 0.076 (at node 0)
Accepted flit rate average= 0.046
	minimum = 0.026 (at node 3)
	maximum = 0.06 (at node 6)
Injected packet length average = 1
Accepted packet length average = 1
Total in-flight flits = 23 (0 measured)
latency change    = 1
throughput change = 1
Class 0:
Packet latency average = 20.4275
	minimum = 7
	maximum = 45
Network latency average = 20.4275
	minimum = 7
	maximum = 45
Slowest packet = 133983
Flit latency average = 20.4275
	minimum = 7
	maximum = 45
Slowest flit = 133983
Fragmentation average = 0
	minimum = 0
	maximum = 0
Injected packet rate average = 0.049625
	minimum = 0.038 (at node 4)
	maximum = 0.064 (at node 14)
Accepted packet rate average = 0.04825
	minimum = 0.038 (at node 3)
	maximum = 0.055 (at node 15)
Injected flit rate average = 0.049625
	minimum = 0.038 (at node 4)
	maximum = 0.064 (at node 14)
Accepted flit rate average= 0.04825
	minimum = 0.038 (at node 3)
	maximum = 0.055 (at node 15)
Injected packet length average = 1
Accepted packet length average = 1
Total in-flight flits = 22 (0 measured)
latency change    = 0.0148066
throughput change = 0.0466321
Class 0:
Packet latency average = 20.4988
	minimum = 7
	maximum = 48
Network latency average = 20.4988
	minimum = 7
	maximum = 48
Slowest packet = 134497
Flit latency average = 20.4988
	minimum = 7
	maximum = 48
Slowest flit = 134497
Fragmentation average = 0
	minimum = 0
	maximum = 0
Injected packet rate average = 0.050375
	minimum = 0.038 (at node 14)
	maximum = 0.062 (at node 4)
Accepted packet rate average = 0.051375
	minimum = 0.032 (at node 13)
	maximum = 0.08 (at node 10)
Injected flit rate average = 0.050375
	minimum = 0.038 (at node 14)
	maximum = 0.062 (at node 4)
Accepted flit rate average= 0.051375
	minimum = 0.032 (at node 13)
	maximum = 0.08 (at node 10)
Injected packet length average = 1
Accepted packet length average = 1
Total in-flight flits = 14 (0 measured)
latency change    = 0.00347934
throughput change = 0.0608273
Warmed up ...Time used is 1500 cycles
Class 0:
Packet latency average = 20.4335
	minimum = 7
	maximum = 46
Network latency average = 20.4335
	minimum = 7
	maximum = 46
Slowest packet = 134613
Flit latency average = 20.4667
	minimum = 7
	maximum = 46
Slowest flit = 134613
Fragmentation average = 0
	minimum = 0
	maximum = 0
Injected packet rate average = 0.048625
	minimum = 0.032 (at node 8)
	maximum = 0.066 (at node 12)
Accepted packet rate average = 0.04875
	minimum = 0.034 (at node 14)
	maximum = 0.074 (at node 11)
Injected flit rate average = 0.048625
	minimum = 0.032 (at node 8)
	maximum = 0.066 (at node 12)
Accepted flit rate average= 0.04875
	minimum = 0.034 (at node 14)
	maximum = 0.074 (at node 11)
Injected packet length average = 1
Accepted packet length average = 1
Total in-flight flits = 13 (13 measured)
latency change    = 0.0031944
throughput change = 0.0538462
Class 0:
Packet latency average = 20.1841
	minimum = 7
	maximum = 46
Network latency average = 20.1841
	minimum = 7
	maximum = 46
Slowest packet = 134613
Flit latency average = 20.2058
	minimum = 7
	maximum = 46
Slowest flit = 134613
Fragmentation average = 0
	minimum = 0
	maximum = 0
Injected packet rate average = 0.0475625
	minimum = 0.035 (at node 8)
	maximum = 0.059 (at node 13)
Accepted packet rate average = 0.047375
	minimum = 0.034 (at node 6)
	maximum = 0.063 (at node 5)
Injected flit rate average = 0.0475625
	minimum = 0.035 (at node 8)
	maximum = 0.059 (at node 13)
Accepted flit rate average= 0.047375
	minimum = 0.034 (at node 6)
	maximum = 0.063 (at node 5)
Injected packet length average = 1
Accepted packet length average = 1
Total in-flight flits = 17 (17 measured)
latency change    = 0.0123548
throughput change = 0.0290237
Class 0:
Packet latency average = 20.06
	minimum = 7
	maximum = 46
Network latency average = 20.06
	minimum = 7
	maximum = 46
Slowest packet = 134613
Flit latency average = 20.0754
	minimum = 7
	maximum = 46
Slowest flit = 134613
Fragmentation average = 0
	minimum = 0
	maximum = 0
Injected packet rate average = 0.0490417
	minimum = 0.0433333 (at node 5)
	maximum = 0.0586667 (at node 12)
Accepted packet rate average = 0.0491667
	minimum = 0.0426667 (at node 6)
	maximum = 0.0593333 (at node 5)
Injected flit rate average = 0.0490417
	minimum = 0.0433333 (at node 5)
	maximum = 0.0586667 (at node 12)
Accepted flit rate average= 0.0491667
	minimum = 0.0426667 (at node 6)
	maximum = 0.0593333 (at node 5)
Injected packet length average = 1
Accepted packet length average = 1
Total in-flight flits = 11 (11 measured)
latency change    = 0.0061867
throughput change = 0.0364407
Class 0:
Packet latency average = 19.95
	minimum = 7
	maximum = 46
Network latency average = 19.95
	minimum = 7
	maximum = 46
Slowest packet = 134613
Flit latency average = 19.9627
	minimum = 7
	maximum = 46
Slowest flit = 134613
Fragmentation average = 0
	minimum = 0
	maximum = 0
Injected packet rate average = 0.0485937
	minimum = 0.043 (at node 8)
	maximum = 0.0555 (at node 12)
Accepted packet rate average = 0.0485625
	minimum = 0.042 (at node 2)
	maximum = 0.06 (at node 5)
Injected flit rate average = 0.0485937
	minimum = 0.043 (at node 8)
	maximum = 0.0555 (at node 12)
Accepted flit rate average= 0.0485625
	minimum = 0.042 (at node 2)
	maximum = 0.06 (at node 5)
Injected packet length average = 1
Accepted packet length average = 1
Total in-flight flits = 15 (15 measured)
latency change    = 0.0055155
throughput change = 0.012441
Draining all recorded packets ...
Draining remaining packets ...
Time taken is 3560 cycles
====== Overall Traffic Statistics ======
====== Traffic class 0 ======
Packet latency average = 20.0062 (50 samples)
	minimum = 7 (50 samples)
	maximum = 47.52 (50 samples)
Network latency average = 20.0062 (50 samples)
	minimum = 7 (50 samples)
	maximum = 47.52 (50 samples)
Flit latency average = 20.0404 (50 samples)
	minimum = 7 (50 samples)
	maximum = 47.58 (50 samples)
Fragmentation average = 0 (50 samples)
	minimum = 0 (50 samples)
	maximum = 0 (50 samples)
Injected packet rate average = 0.0501353 (50 samples)
	minimum = 0.0406647 (50 samples)
	maximum = 0.059468 (50 samples)
Accepted packet rate average = 0.0501278 (50 samples)
	minimum = 0.0411853 (50 samples)
	maximum = 0.060038 (50 samples)
Injected flit rate average = 0.0501353 (50 samples)
	minimum = 0.0406647 (50 samples)
	maximum = 0.059468 (50 samples)
Accepted flit rate average = 0.0501278 (50 samples)
	minimum = 0.0411853 (50 samples)
	maximum = 0.060038 (50 samples)
Injected packet size average = 1 (50 samples)
Accepted packet size average = 1 (50 samples)
Hops average = 3.49495 (50 samples)
Total run time 1.84357
