BEGIN Configuration File: /tmp/tmpxmpg38md.cfg
topology = mesh;
k = 4;
n = 2;
routing_function = planar_adapt;
num_vcs = 4;
vc_buf_size = 4;
wait_for_tail_credit = 1;
vc_allocator = islip;
sw_allocator = islip;
alloc_iters = 1;
credit_delay = 2;
routing_delay = 1;
vc_alloc_delay = 1;
sw_alloc_delay = 1;
input_speedup = 2;
output_speedup = 1;
internal_speedup = 1.0;
traffic = uniform;
packet_size = 1;
sim_type = latency;
injection_rate = 0.01;
warmup_periods = 3;
sample_period = 500;
sim_count = 50;
seed = 0;
link_failures = 1;
fail_seed = 101;

END Configuration File: /tmp/tmpxmpg38md.cfg
failure at node 14, channel 0 (1/1)
Class 0:
Packet latency average = 20.3125
	minimum = 7
	maximum = 37
Network latency average = 20.3125
	minimum = 7
	maximum = 37
Slowest packet = 23
Flit latency average = 20.3125
	minimum = 7
	maximum = 37
Slowest flit = 23
Fragmentation average = 0
	minimum = 0
	maximum = 0
Injected packet rate average = 0.010375
	minimum = 0.004 (at node 5)
	maximum = 0.016 (at node 9)
Accepted packet rate average = 0.01
	minimum = 0.004 (at node 12)
	maximum = 0.02 (at node 2)
Injected flit rate average = 0.010375
	minimum = 0.004 (at node 5)
	maximum = 0.016 (at node 9)
Accepted flit rate average= 0.01
	minimum = 0.004 (at node 12)
	maximum = 0.02 (at node 2)
Injected packet length average = 1
Accepted packet length average = 1
Total in-flight flits = 3 (0 measured)
latency change    = 1
throughput change = 1
Class 0:
Packet latency average = 19.5065
	minimum = 7
	maximum = 37
Network latency average = 19.5065
	minimum = 7
	maximum = 37
Slowest packet = 23
Flit latency average = 19.5065
	minimum = 7
	maximum = 37
Slowest flit = 23
Fragmentation average = 0
	minimum = 0
	maximum = 0
Injected packet rate average = 0.00975
	minimum = 0.004 (at node 11)
	maximum = 0.014 (at node 13)
Accepted packet rate average = 0.009625
	minimum = 0.004 (at node 11)
	maximum = 0.016 (at node 9)
Injected flit rate average = 0.00975
	minimum = 0.004 (at node 11)
	maximum = 0.014 (at node 13)
Accepted flit rate average= 0.009625
	minimum = 0.004 (at node 11)
	maximum = 0.016 (at node 9)
Injected packet length average = 1
Accepted packet length average = 1
Total in-flight flits = 2 (0 measured)
latency change    = 0.0413199
throughput change = 0.038961
Class 0:
Packet latency average = 20.5714
	minimum = 7
	maximum = 37
Network latency average = 20.5714
	minimum = 7
	maximum = 37
Slowest packet = 213
Flit latency average = 20.5714
	minimum = 7
	maximum = 37
Slowest flit = 213
Fragmentation average = 0
	minimum = 0
	maximum = 0
Injected packet rate average = 0.00925
	minimum = 0.002 (at node 11)
	maximum = 0.016 (at node 10)
Accepted packet rate average = 0.00875
	minimum = 0.004 (at node 9)
	maximum = 0.016 (at node 8)
Injected flit rate average = 0.00925
	minimum = 0.002 (at node 11)
	maximum = 0.016 (at node 10)
Accepted flit rate average= 0.00875
	minimum = 0.004 (at node 9)
	maximum = 0.016 (at node 8)
Injected packet length average = 1
Accepted packet length average = 1
Total in-flight flits = 6 (0 measured)
latency change    = 0.0517677
throughput change = 0.1
Warmed up ...Time used is 1500 cycles
Class 0:
Packet latency average = 17.8267
	minimum = 7
	maximum = 37
Network latency average = 17.8267
	minimum = 7
	maximum = 37
Slowest packet = 262
Flit latency average = 18.321
	minimum = 7
	maximum = 37
Slowest flit = 262
Fragmentation average = 0
	minimum = 0
	maximum = 0
Injected packet rate average = 0.00975
	minimum = 0.004 (at node 3)
	maximum = 0.018 (at node 8)
Accepted packet rate average = 0.010125
	minimum = 0.004 (at node 11)
	maximum = 0.016 (at node 1)
Injected flit rate average = 0.00975
	minimum = 0.004 (at node 3)
	maximum = 0.018 (at node 8)
Accepted flit rate average= 0.010125
	minimum = 0.004 (at node 11)
	maximum = 0.016 (at node 1)
Injected packet length average = 1
Accepted packet length average = 1
Total in-flight flits = 3 (3 measured)
latency change    = 0.153969
throughput change = 0.135802
Class 0:
Packet latency average = 19.3571
	minimum = 7
	maximum = 38
Network latency average = 19.3571
	minimum = 7
	maximum = 38
Slowest packet = 366
Flit latency average = 19.55
	minimum = 7
	maximum = 38
Slowest flit = 366
Fragmentation average = 0
	minimum = 0
	maximum = 0
Injected packet rate average = 0.0096875
	minimum = 0.005 (at node 7)
	maximum = 0.016 (at node 13)
Accepted packet rate average = 0.01
	minimum = 0.005 (at node 9)
	maximum = 0.015 (at node 15)
Injected flit rate average = 0.0096875
	minimum = 0.005 (at node 7)
	maximum = 0.016 (at node 13)
Accepted flit rate average= 0.01
	minimum = 0.005 (at node 9)
	maximum = 0.015 (at node 15)
Injected packet length average = 1
Accepted packet length average = 1
Total in-flight flits = 1 (1 measured)
latency change    = 0.0790652
throughput change = 0.0125
Class 0:
Packet latency average = 19.7004
	minimum = 7
	maximum = 38
Network latency average = 19.7004
	minimum = 7
	maximum = 38
Slowest packet = 366
Flit latency average = 19.8189
	minimum = 7
	maximum = 38
Slowest flit = 366
Fragmentation average = 0
	minimum = 0
	maximum = 0
Injected packet rate average = 0.00991667
	minimum = 0.00733333 (at node 7)
	maximum = 0.0133333 (at node 13)
Accepted packet rate average = 0.010125
	minimum = 0.00733333 (at node 9)
	maximum = 0.0133333 (at node 4)
Injected flit rate average = 0.00991667
	minimum = 0.00733333 (at node 7)
	maximum = 0.0133333 (at node 13)
Accepted flit rate average= 0.010125
	minimum = 0.00733333 (at node 9)
	maximum = 0.0133333 (at node 4)
Injected packet length average = 1
Accepted packet length average = 1
Total in-flight flits = 1 (1 measured)
latency change    = 0.017425
throughput change = 0.0123457
Class 0:
Packet latency average = 19.707
	minimum = 7
	maximum = 38
Network latency average = 19.707
	minimum = 7
	maximum = 38
Slowest packet = 366
Flit latency average = 19.7969
	minimum = 7
	maximum = 38
Slowest flit = 366
Fragmentation average = 0
	minimum = 0
	maximum = 0
Injected packet rate average = 0.00990625
	minimum = 0.0075 (at node 1)
	maximum = 0.013 (at node 8)
Accepted packet rate average = 0.01
	minimum = 0.007 (at node 10)
	maximum = 0.014 (at node 4)
Injected flit rate average = 0.00990625
	minimum = 0.0075 (at node 1)
	maximum = 0.013 (at node 8)
Accepted flit rate average= 0.01
	minimum = 0.007 (at node 10)
	maximum = 0.014 (at node 4)
Injected packet length average = 1
Accepted packet length average = 1
Total in-flight flits = 3 (3 measured)
latency change    = 0.000334116
throughput change = 0.0125
Class 0:
Packet latency average = 19.9554
	minimum = 7
	maximum = 38
Network latency average = 19.9554
	minimum = 7
	maximum = 38
Slowest packet = 366
Flit latency average = 20.0258
	minimum = 7
	maximum = 38
Slowest flit = 366
Fragmentation average = 0
	minimum = 0
	maximum = 0
Injected packet rate average = 0.009625
	minimum = 0.0072 (at node 1)
	maximum = 0.0124 (at node 11)
Accepted packet rate average = 0.009675
	minimum = 0.0068 (at node 9)
	maximum = 0.0128 (at node 1)
Injected flit rate average = 0.009625
	minimum = 0.0072 (at node 1)
	maximum = 0.0124 (at node 11)
Accepted flit rate average= 0.009675
	minimum = 0.0068 (at node 9)
	maximum = 0.0128 (at node 1)
Injected packet length average = 1
Accepted packet length average = 1
Total in-flight flits = 4 (4 measured)
latency change    = 0.0124465
throughput change = 0.0335917
Draining all recorded packets ...
Draining remaining packets ...
Time taken is 4040 cycles
Class 0:
Packet latency average = 19.6757
	minimum = 7
	maximum = 37
Network latency average = 19.6757
	minimum = 7
	maximum = 37
Slowest packet = 656
Flit latency average = 19.6757
	minimum = 7
	maximum = 37
Slowest flit = 656
Fragmentation average = 0
	minimum = 0
	maximum = 0
Injected packet rate average = 0.009625
	minimum = 0.004 (at node 4)
	maximum = 0.018 (at node 10)
Accepted packet rate average = 0.00925
	minimum = 0.002 (at node 11)
	maximum = 0.016 (at node 8)
Injected flit rate average = 0.009625
	minimum = 0.004 (at node 4)
	maximum = 0.018 (at node 10)
Accepted flit rate average= 0.00925
	minimum = 0.002 (at node 11)
	maximum = 0.016 (at node 8)
Injected packet length average = 1
Accepted packet length average = 1
Total in-flight flits = 3 (0 measured)
latency change    = 1
throughput change = 1
Class 0:
Packet latency average = 19.0839
	minimum = 7
	maximum = 37
Network latency average = 19.0839
	minimum = 7
	maximum = 37
Slowest packet = 656
Flit latency average = 19.0839
	minimum = 7
	maximum = 37
Slowest flit = 656
Fragmentation average = 0
	minimum = 0
	maximum = 0
Injected packet rate average = 0.0091875
	minimum = 0.005 (at node 4)
	maximum = 0.013 (at node 1)
Accepted packet rate average = 0.0089375
	minimum = 0.005 (at node 0)
	maximum = 0.016 (at node 8)
Injected flit rate average = 0.0091875
	minimum = 0.005 (at node 4)
	maximum = 0.013 (at node 1)
Accepted flit rate average= 0.0089375
	minimum = 0.005 (at node 0)
	maximum = 0.016 (at node 8)
Injected packet length average = 1
Accepted packet length average = 1
Total in-flight flits = 4 (0 measured)
latency change    = 0.0310083
throughput change = 0.034965
Class 0:
Packet latency average = 19.5714
	minimum = 7
	maximum = 32
Network latency average = 19.5714
	minimum = 7
	maximum = 32
Slowest packet = 793
Flit latency average = 19.5714
	minimum = 7
	maximum = 32
Slowest flit = 793
Fragmentation average = 0
	minimum = 0
	maximum = 0
Injected packet rate average = 0.010625
	minimum = 0.002 (at node 2)
	maximum = 0.02 (at node 15)
Accepted packet rate average = 0.0105
	minimum = 0.004 (at node 1)
	maximum = 0.016 (at node 2)
Injected flit rate average = 0.010625
	minimum = 0.002 (at node 2)
	maximum = 0.02 (at node 15)
Accepted flit rate average= 0.0105
	minimum = 0.004 (at node 1)
	maximum = 0.016 (at node 2)
Injected packet length average = 1
Accepted packet length average = 1
Total in-flight flits = 5 (0 measured)
latency change    = 0.0249094
throughput change = 0.14881
Warmed up ...Time used is 1500 cycles
Class 0:
Packet latency average = 18.1429
	minimum = 7
	maximum = 32
Network latency average = 18.1429
	minimum = 7
	maximum = 32
Slowest packet = 863
Flit latency average = 18.2667
	minimum = 7
	maximum = 32
Slowest flit = 863
Fragmentation average = 0
	minimum = 0
	maximum = 0
Injected packet rate average = 0.009375
	minimum = 0.002 (at node 6)
	maximum = 0.018 (at node 13)
Accepted packet rate average = 0.009375
	minimum = 0.002 (at node 10)
	maximum = 0.024 (at node 7)
Injected flit rate average = 0.009375
	minimum = 0.002 (at node 6)
	maximum = 0.018 (at node 13)
Accepted flit rate average= 0.009375
	minimum = 0.002 (at node 10)
	maximum = 0.024 (at node 7)
Injected packet length average = 1
Accepted packet length average = 1
Total in-flight flits = 5 (5 measured)
latency change    = 0.0787402
throughput change = 0.12
Class 0:
Packet latency average = 19.1111
	minimum = 7
	maximum = 37
Network latency average = 19.1111
	minimum = 7
	maximum = 37
Slowest packet = 918
Flit latency average = 19.1392
	minimum = 7
	maximum = 37
Slowest flit = 918
Fragmentation average = 0
	minimum = 0
	maximum = 0
Injected packet rate average = 0.0100625
	minimum = 0.002 (at node 10)
	maximum = 0.017 (at node 3)
Accepted packet rate average = 0.009875
	minimum = 0.005 (at node 0)
	maximum = 0.018 (at node 7)
Injected flit rate average = 0.0100625
	minimum = 0.002 (at node 10)
	maximum = 0.017 (at node 3)
Accepted flit rate average= 0.009875
	minimum = 0.005 (at node 0)
	maximum = 0.018 (at node 7)
Injected packet length average = 1
Accepted packet length average = 1
Total in-flight flits = 8 (8 measured)
latency change    = 0.0506645
throughput change = 0.0506329
Class 0:
Packet latency average = 19.7609
	minimum = 7
	maximum = 37
Network latency average = 19.7609
	minimum = 7
	maximum = 37
Slowest packet = 918
Flit latency average = 19.766
	minimum = 7
	maximum = 37
Slowest flit = 918
Fragmentation average = 0
	minimum = 0
	maximum = 0
Injected packet rate average = 0.00979167
	minimum = 0.00533333 (at node 10)
	maximum = 0.0186667 (at node 13)
Accepted packet rate average = 0.00979167
	minimum = 0.00533333 (at node 0)
	maximum = 0.016 (at node 7)
Injected flit rate average = 0.00979167
	minimum = 0.00533333 (at node 10)
	maximum = 0.0186667 (at node 13)
Accepted flit rate average= 0.00979167
	minimum = 0.00533333 (at node 0)
	maximum = 0.016 (at node 7)
Injected packet length average = 1
Accepted packet length average = 1
Total in-flight flits = 5 (5 measured)
latency change    = 0.0328811
throughput change = 0.00851064
Class 0:
Packet latency average = 19.8778
	minimum = 7
	maximum = 37
Network latency average = 19.8778
	minimum = 7
	maximum = 37
Slowest packet = 918
Flit latency average = 19.8797
	minimum = 7
	maximum = 37
Slowest flit = 918
Fragmentation average = 0
	minimum = 0
	maximum = 0
Injected packet rate average = 0.0098125
	minimum = 0.0065 (at node 0)
	maximum = 0.0175 (at node 13)
Accepted packet rate average = 0.009875
	minimum = 0.0065 (at node 13)
	maximum = 0.015 (at node 7)
Injected flit rate average = 0.0098125
	minimum = 0.0065 (at node 0)
	maximum = 0.0175 (at node 13)
Accepted flit rate average= 0.009875
	minimum = 0.0065 (at node 13)
	maximum = 0.015 (at node 7)
Injected packet length average = 1
Accepted packet length average = 1
Total in-flight flits = 3 (3 measured)
latency change    = 0.00588314
throughput change = 0.00843882
Class 0:
Packet latency average = 20.005
	minimum = 7
	maximum = 44
Network latency average = 20.005
	minimum = 7
	maximum = 44
Slowest packet = 1240
Flit latency average = 20.0049
	minimum = 7
	maximum = 44
Slowest flit = 1240
Fragmentation average = 0
	minimum = 0
	maximum = 0
Injected packet rate average = 0.010175
	minimum = 0.0076 (at node 0)
	maximum = 0.0172 (at node 13)
Accepted packet rate average = 0.0102
	minimum = 0.0072 (at node 0)
	maximum = 0.014 (at node 7)
Injected flit rate average = 0.010175
	minimum = 0.0076 (at node 0)
	maximum = 0.0172 (at node 13)
Accepted flit rate average= 0.0102
	minimum = 0.0072 (at node 0)
	maximum = 0.014 (at node 7)
Injected packet length average = 1
Accepted packet length average = 1
Total in-flight flits = 4 (4 measured)
latency change    = 0.00635589
throughput change = 0.0318627
Draining all recorded packets ...
Draining remaining packets ...
Time taken is 4033 cycles
Class 0:
Packet latency average = 19.1183
	minimum = 7
	maximum = 37
Network latency average = 19.1183
	minimum = 7
	maximum = 37
Slowest packet = 1264
Flit latency average = 19.1183
	minimum = 7
	maximum = 37
Slowest flit = 1264
Fragmentation average = 0
	minimum = 0
	maximum = 0
Injected packet rate average = 0.012125
	minimum = 0.006 (at node 8)
	maximum = 0.018 (at node 9)
Accepted packet rate average = 0.011625
	minimum = 0.004 (at node 2)
	maximum = 0.016 (at node 1)
Injected flit rate average = 0.012125
	minimum = 0.006 (at node 8)
	maximum = 0.018 (at node 9)
Accepted flit rate average= 0.011625
	minimum = 0.004 (at node 2)
	maximum = 0.016 (at node 1)
Injected packet length average = 1
Accepted packet length average = 1
Total in-flight flits = 4 (0 measured)
latency change    = 1
throughput change = 1
Class 0:
Packet latency average = 18.8226
	minimum = 7
	maximum = 50
Network latency average = 18.8226
	minimum = 7
	maximum = 50
Slowest packet = 1371
Flit latency average = 18.8226
	minimum = 7
	maximum = 50
Slowest flit = 1371
Fragmentation average = 0
	minimum = 0
	maximum = 0
Injected packet rate average = 0.01175
	minimum = 0.009 (at node 8)
	maximum = 0.015 (at node 1)
Accepted packet rate average = 0.011625
	minimum = 0.005 (at node 3)
	maximum = 0.017 (at node 8)
Injected flit rate average = 0.01175
	minimum = 0.009 (at node 8)
	maximum = 0.015 (at node 1)
Accepted flit rate average= 0.011625
	minimum = 0.005 (at node 3)
	maximum = 0.017 (at node 8)
Injected packet length average = 1
Accepted packet length average = 1
Total in-flight flits = 2 (0 measured)
latency change    = 0.0157098
throughput change = 0
Class 0:
Packet latency average = 20.3553
	minimum = 7
	maximum = 37
Network latency average = 20.3553
	minimum = 7
	maximum = 37
Slowest packet = 1455
Flit latency average = 20.3553
	minimum = 7
	maximum = 37
Slowest flit = 1455
Fragmentation average = 0
	minimum = 0
	maximum = 0
Injected packet rate average = 0.009625
	minimum = 0.002 (at node 5)
	maximum = 0.02 (at node 7)
Accepted packet rate average = 0.0095
	minimum = 0.002 (at node 2)
	maximum = 0.018 (at node 1)
Injected flit rate average = 0.009625
	minimum = 0.002 (at node 5)
	maximum = 0.02 (at node 7)
Accepted flit rate average= 0.0095
	minimum = 0.002 (at node 2)
	maximum = 0.018 (at node 1)
Injected packet length average = 1
Accepted packet length average = 1
Total in-flight flits = 3 (0 measured)
latency change    = 0.0752966
throughput change = 0.223684
Warmed up ...Time used is 1500 cycles
Class 0:
Packet latency average = 19.5
	minimum = 7
	maximum = 37
Network latency average = 19.5
	minimum = 7
	maximum = 37
Slowest packet = 1543
Flit latency average = 19.7612
	minimum = 7
	maximum = 37
Slowest flit = 1543
Fragmentation average = 0
	minimum = 0
	maximum = 0
Injected packet rate average = 0.00825
	minimum = 0.004 (at node 0)
	maximum = 0.016 (at node 3)
Accepted packet rate average = 0.008375
	minimum = 0.004 (at node 7)
	maximum = 0.012 (at node 0)
Injected flit rate average = 0.00825
	minimum = 0.004 (at node 0)
	maximum = 0.016 (at node 3)
Accepted flit rate average= 0.008375
	minimum = 0.004 (at node 7)
	maximum = 0.012 (at node 0)
Injected packet length average = 1
Accepted packet length average = 1
Total in-flight flits = 2 (2 measured)
latency change    = 0.0438596
throughput change = 0.134328
Class 0:
Packet latency average = 19.9433
	minimum = 7
	maximum = 37
Network latency average = 19.9433
	minimum = 7
	maximum = 37
Slowest packet = 1543
Flit latency average = 20.0556
	minimum = 7
	maximum = 37
Slowest flit = 1543
Fragmentation average = 0
	minimum = 0
	maximum = 0
Injected packet rate average = 0.0089375
	minimum = 0.003 (at node 2)
	maximum = 0.012 (at node 1)
Accepted packet rate average = 0.009
	minimum = 0.004 (at node 7)
	maximum = 0.012 (at node 2)
Injected flit rate average = 0.0089375
	minimum = 0.003 (at node 2)
	maximum = 0.012 (at node 1)
Accepted flit rate average= 0.009
	minimum = 0.004 (at node 7)
	maximum = 0.012 (at node 2)
Injected packet length average = 1
Accepted packet length average = 1
Total in-flight flits = 2 (2 measured)
latency change    = 0.0222262
throughput change = 0.0694444
Class 0:
Packet latency average = 19.6457
	minimum = 7
	maximum = 37
Network latency average = 19.6457
	minimum = 7
	maximum = 37
Slowest packet = 1543
Flit latency average = 19.7212
	minimum = 7
	maximum = 37
Slowest flit = 1543
Fragmentation average = 0
	minimum = 0
	maximum = 0
Injected packet rate average = 0.00941667
	minimum = 0.00533333 (at node 2)
	maximum = 0.0133333 (at node 1)
Accepted packet rate average = 0.00941667
	minimum = 0.006 (at node 7)
	maximum = 0.0126667 (at node 3)
Injected flit rate average = 0.00941667
	minimum = 0.00533333 (at node 2)
	maximum = 0.0133333 (at node 1)
Accepted flit rate average= 0.00941667
	minimum = 0.006 (at node 7)
	maximum = 0.0126667 (at node 3)
Injected packet length average = 1
Accepted packet length average = 1
Total in-flight flits = 3 (3 measured)
latency change    = 0.0151444
throughput change = 0.0442478
Class 0:
Packet latency average = 19.8025
	minimum = 7
	maximum = 37
Network latency average = 19.8025
	minimum = 7
	maximum = 37
Slowest packet = 1543
Flit latency average = 19.8549
	minimum = 7
	maximum = 37
Slowest flit = 1543
Fragmentation average = 0
	minimum = 0
	maximum = 0
Injected packet rate average = 0.0098125
	minimum = 0.0085 (at node 2)
	maximum = 0.0125 (at node 1)
Accepted packet rate average = 0.00990625
	minimum = 0.007 (at node 4)
	maximum = 0.012 (at node 0)
Injected flit rate average = 0.0098125
	minimum = 0.0085 (at node 2)
	maximum = 0.0125 (at node 1)
Accepted flit rate average= 0.00990625
	minimum = 0.007 (at node 4)
	maximum = 0.012 (at node 0)
Injected packet length average = 1
Accepted packet length average = 1
Total in-flight flits = 0 (0 measured)
latency change    = 0.00791857
throughput change = 0.0494217
Class 0:
Packet latency average = 19.8
	minimum = 7
	maximum = 37
Network latency average = 19.8
	minimum = 7
	maximum = 37
Slowest packet = 1543
Flit latency average = 19.8417
	minimum = 7
	maximum = 37
Slowest flit = 1543
Fragmentation average = 0
	minimum = 0
	maximum = 0
Injected packet rate average = 0.009925
	minimum = 0.008 (at node 6)
	maximum = 0.012 (at node 12)
Accepted packet rate average = 0.00995
	minimum = 0.0068 (at node 5)
	maximum = 0.0124 (at node 13)
Injected flit rate average = 0.009925
	minimum = 0.008 (at node 6)
	maximum = 0.012 (at node 12)
Accepted flit rate average= 0.00995
	minimum = 0.0068 (at node 5)
	maximum = 0.0124 (at node 13)
Injected packet length average = 1
Accepted packet length average = 1
Total in-flight flits = 2 (2 measured)
latency change    = 0.000128675
throughput change = 0.00439698
Draining all recorded packets ...
Draining remaining packets ...
Time taken is 4041 cycles
Class 0:
Packet latency average = 20.9882
	minimum = 7
	maximum = 41
Network latency average = 20.9882
	minimum = 7
	maximum = 41
Slowest packet = 1948
Flit latency average = 20.9882
	minimum = 7
	maximum = 41
Slowest flit = 1948
Fragmentation average = 0
	minimum = 0
	maximum = 0
Injected packet rate average = 0.011
	minimum = 0.002 (at node 10)
	maximum = 0.018 (at node 2)
Accepted packet rate average = 0.010625
	minimum = 0.006 (at node 8)
	maximum = 0.014 (at node 1)
Injected flit rate average = 0.011
	minimum = 0.002 (at node 10)
	maximum = 0.018 (at node 2)
Accepted flit rate average= 0.010625
	minimum = 0.006 (at node 8)
	maximum = 0.014 (at node 1)
Injected packet length average = 1
Accepted packet length average = 1
Total in-flight flits = 3 (0 measured)
latency change    = 1
throughput change = 1
Class 0:
Packet latency average = 19.9636
	minimum = 7
	maximum = 41
Network latency average = 19.9636
	minimum = 7
	maximum = 41
Slowest packet = 1948
Flit latency average = 19.9636
	minimum = 7
	maximum = 41
Slowest flit = 1948
Fragmentation average = 0
	minimum = 0
	maximum = 0
Injected packet rate average = 0.010375
	minimum = 0.006 (at node 10)
	maximum = 0.013 (at node 2)
Accepted packet rate average = 0.0103125
	minimum = 0.007 (at node 13)
	maximum = 0.013 (at node 3)
Injected flit rate average = 0.010375
	minimum = 0.006 (at node 10)
	maximum = 0.013 (at node 2)
Accepted flit rate average= 0.0103125
	minimum = 0.007 (at node 13)
	maximum = 0.013 (at node 3)
Injected packet length average = 1
Accepted packet length average = 1
Total in-flight flits = 1 (0 measured)
latency change    = 0.0513233
throughput change = 0.030303
Class 0:
Packet latency average = 19.3908
	minimum = 7
	maximum = 39
Network latency average = 19.3908
	minimum = 7
	maximum = 39
Slowest packet = 2154
Flit latency average = 19.3908
	minimum = 7
	maximum = 39
Slowest flit = 2154
Fragmentation average = 0
	minimum = 0
	maximum = 0
Injected packet rate average = 0.011625
	minimum = 0.002 (at node 11)
	maximum = 0.02 (at node 12)
Accepted packet rate average = 0.010875
	minimum = 0.002 (at node 4)
	maximum = 0.018 (at node 7)
Injected flit rate average = 0.011625
	minimum = 0.002 (at node 11)
	maximum = 0.02 (at node 12)
Accepted flit rate average= 0.010875
	minimum = 0.002 (at node 4)
	maximum = 0.018 (at node 7)
Injected packet length average = 1
Accepted packet length average = 1
Total in-flight flits = 7 (0 measured)
latency change    = 0.0295414
throughput change = 0.0517241
Warmed up ...Time used is 1500 cycles
Class 0:
Packet latency average = 19.3077
	minimum = 7
	maximum = 32
Network latency average = 19.3077
	minimum = 7
	maximum = 32
Slowest packet = 2182
Flit latency average = 19.6389
	minimum = 7
	maximum = 37
Slowest flit = 2178
Fragmentation average = 0
	minimum = 0
	maximum = 0
Injected packet rate average = 0.0085
	minimum = 0.004 (at node 13)
	maximum = 0.012 (at node 7)
Accepted packet rate average = 0.009
	minimum = 0.004 (at node 8)
	maximum = 0.016 (at node 12)
Injected flit rate average = 0.0085
	minimum = 0.004 (at node 13)
	maximum = 0.012 (at node 7)
Accepted flit rate average= 0.009
	minimum = 0.004 (at node 8)
	maximum = 0.016 (at node 12)
Injected packet length average = 1
Accepted packet length average = 1
Total in-flight flits = 3 (3 measured)
latency change    = 0.00430462
throughput change = 0.208333
Class 0:
Packet latency average = 19.5874
	minimum = 7
	maximum = 37
Network latency average = 19.5874
	minimum = 7
	maximum = 37
Slowest packet = 2311
Flit latency average = 19.7333
	minimum = 7
	maximum = 37
Slowest flit = 2178
Fragmentation average = 0
	minimum = 0
	maximum = 0
Injected packet rate average = 0.0090625
	minimum = 0.007 (at node 1)
	maximum = 0.012 (at node 9)
Accepted packet rate average = 0.009375
	minimum = 0.002 (at node 8)
	maximum = 0.014 (at node 12)
Injected flit rate average = 0.0090625
	minimum = 0.007 (at node 1)
	maximum = 0.012 (at node 9)
Accepted flit rate average= 0.009375
	minimum = 0.002 (at node 8)
	maximum = 0.014 (at node 12)
Injected packet length average = 1
Accepted packet length average = 1
Total in-flight flits = 2 (2 measured)
latency change    = 0.0142806
throughput change = 0.04
Class 0:
Packet latency average = 20.0374
	minimum = 7
	maximum = 42
Network latency average = 20.0374
	minimum = 7
	maximum = 42
Slowest packet = 2326
Flit latency average = 20.1222
	minimum = 7
	maximum = 42
Slowest flit = 2326
Fragmentation average = 0
	minimum = 0
	maximum = 0
Injected packet rate average = 0.00904167
	minimum = 0.00533333 (at node 12)
	maximum = 0.012 (at node 7)
Accepted packet rate average = 0.00920833
	minimum = 0.004 (at node 8)
	maximum = 0.014 (at node 12)
Injected flit rate average = 0.00904167
	minimum = 0.00533333 (at node 12)
	maximum = 0.012 (at node 7)
Accepted flit rate average= 0.00920833
	minimum = 0.004 (at node 8)
	maximum = 0.014 (at node 12)
Injected packet length average = 1
Accepted packet length average = 1
Total in-flight flits = 3 (3 measured)
latency change    = 0.0224566
throughput change = 0.0180995
Class 0:
Packet latency average = 19.8114
	minimum = 7
	maximum = 42
Network latency average = 19.8114
	minimum = 7
	maximum = 42
Slowest packet = 2326
Flit latency average = 19.8783
	minimum = 7
	maximum = 42
Slowest flit = 2326
Fragmentation average = 0
	minimum = 0
	maximum = 0
Injected packet rate average = 0.00940625
	minimum = 0.0065 (at node 3)
	maximum = 0.012 (at node 7)
Accepted packet rate average = 0.0095
	minimum = 0.0055 (at node 8)
	maximum = 0.0125 (at node 12)
Injected flit rate average = 0.00940625
	minimum = 0.0065 (at node 3)
	maximum = 0.012 (at node 7)
Accepted flit rate average= 0.0095
	minimum = 0.0055 (at node 8)
	maximum = 0.0125 (at node 12)
Injected packet length average = 1
Accepted packet length average = 1
Total in-flight flits = 4 (4 measured)
latency change    = 0.0114043
throughput change = 0.0307018
Draining all recorded packets ...
Draining remaining packets ...
Time taken is 3531 cycles
Class 0:
Packet latency average = 17.7654
	minimum = 7
	maximum = 37
Network latency average = 17.7654
	minimum = 7
	maximum = 37
Slowest packet = 2542
Flit latency average = 17.7654
	minimum = 7
	maximum = 37
Slowest flit = 2542
Fragmentation average = 0
	minimum = 0
	maximum = 0
Injected packet rate average = 0.010375
	minimum = 0.002 (at node 0)
	maximum = 0.016 (at node 8)
Accepted packet rate average = 0.010125
	minimum = 0 (at node 15)
	maximum = 0.016 (at node 8)
Injected flit rate average = 0.010375
	minimum = 0.002 (at node 0)
	maximum = 0.016 (at node 8)
Accepted flit rate average= 0.010125
	minimum = 0 (at node 15)
	maximum = 0.016 (at node 8)
Injected packet length average = 1
Accepted packet length average = 1
Total in-flight flits = 2 (0 measured)
latency change    = 1
throughput change = 1
Class 0:
Packet latency average = 19.0813
	minimum = 7
	maximum = 37
Network latency average = 19.0813
	minimum = 7
	maximum = 37
Slowest packet = 2542
Flit latency average = 19.0813
	minimum = 7
	maximum = 37
Slowest flit = 2542
Fragmentation average = 0
	minimum = 0
	maximum = 0
Injected packet rate average = 0.0103125
	minimum = 0.008 (at node 0)
	maximum = 0.013 (at node 4)
Accepted packet rate average = 0.01
	minimum = 0.006 (at node 3)
	maximum = 0.014 (at node 6)
Injected flit rate average = 0.0103125
	minimum = 0.008 (at node 0)
	maximum = 0.013 (at node 4)
Accepted flit rate average= 0.01
	minimum = 0.006 (at node 3)
	maximum = 0.014 (at node 6)
Injected packet length average = 1
Accepted packet length average = 1
Total in-flight flits = 5 (0 measured)
latency change    = 0.0689587
throughput change = 0.0125
Class 0:
Packet latency average = 19.75
	minimum = 7
	maximum = 37
Network latency average = 19.75
	minimum = 7
	maximum = 37
Slowest packet = 2675
Flit latency average = 19.75
	minimum = 7
	maximum = 37
Slowest flit = 2675
Fragmentation average = 0
	minimum = 0
	maximum = 0
Injected packet rate average = 0.010375
	minimum = 0.004 (at node 4)
	maximum = 0.022 (at node 11)
Accepted packet rate average = 0.0105
	minimum = 0.002 (at node 15)
	maximum = 0.018 (at node 3)
Injected flit rate average = 0.010375
	minimum = 0.004 (at node 4)
	maximum = 0.022 (at node 11)
Accepted flit rate average= 0.0105
	minimum = 0.002 (at node 15)
	maximum = 0.018 (at node 3)
Injected packet length average = 1
Accepted packet length average = 1
Total in-flight flits = 4 (0 measured)
latency change    = 0.0338608
throughput change = 0.047619
Warmed up ...Time used is 1500 cycles
Class 0:
Packet latency average = 19.7458
	minimum = 7
	maximum = 32
Network latency average = 19.7458
	minimum = 7
	maximum = 32
Slowest packet = 2735
Flit latency average = 19.8889
	minimum = 7
	maximum = 32
Slowest flit = 2735
Fragmentation average = 0
	minimum = 0
	maximum = 0
Injected packet rate average = 0.007625
	minimum = 0.002 (at node 9)
	maximum = 0.014 (at node 11)
Accepted packet rate average = 0.007875
	minimum = 0.002 (at node 14)
	maximum = 0.018 (at node 5)
Injected flit rate average = 0.007625
	minimum = 0.002 (at node 9)
	maximum = 0.014 (at node 11)
Accepted flit rate average= 0.007875
	minimum = 0.002 (at node 14)
	maximum = 0.018 (at node 5)
Injected packet length average = 1
Accepted packet length average = 1
Total in-flight flits = 2 (2 measured)
latency change    = 0.000214592
throughput change = 0.333333
Class 0:
Packet latency average = 18.9928
	minimum = 7
	maximum = 37
Network latency average = 18.9928
	minimum = 7
	maximum = 37
Slowest packet = 2864
Flit latency average = 19.0769
	minimum = 7
	maximum = 37
Slowest flit = 2864
Fragmentation average = 0
	minimum = 0
	maximum = 0
Injected packet rate average = 0.00875
	minimum = 0.004 (at node 2)
	maximum = 0.014 (at node 11)
Accepted packet rate average = 0.0089375
	minimum = 0.005 (at node 1)
	maximum = 0.014 (at node 2)
Injected flit rate average = 0.00875
	minimum = 0.004 (at node 2)
	maximum = 0.014 (at node 11)
Accepted flit rate average= 0.0089375
	minimum = 0.005 (at node 1)
	maximum = 0.014 (at node 2)
Injected packet length average = 1
Accepted packet length average = 1
Total in-flight flits = 1 (1 measured)
latency change    = 0.0396443
throughput change = 0.118881
Class 0:
Packet latency average = 19.4018
	minimum = 7
	maximum = 37
Network latency average = 19.4018
	minimum = 7
	maximum = 37
Slowest packet = 2864
Flit latency average = 19.4474
	minimum = 7
	maximum = 37
Slowest flit = 2864
Fragmentation average = 0
	minimum = 0
	maximum = 0
Injected packet rate average = 0.00945833
	minimum = 0.004 (at node 9)
	maximum = 0.014 (at node 11)
Accepted packet rate average = 0.0095
	minimum = 0.00533333 (at node 11)
	maximum = 0.014 (at node 2)
Injected flit rate average = 0.00945833
	minimum = 0.004 (at node 9)
	maximum = 0.014 (at node 11)
Accepted flit rate average= 0.0095
	minimum = 0.00533333 (at node 11)
	maximum = 0.014 (at node 2)
Injected packet length average = 1
Accepted packet length average = 1
Total in-flight flits = 3 (3 measured)
latency change    = 0.0210795
throughput change = 0.0592105
Class 0:
Packet latency average = 19.4845
	minimum = 7
	maximum = 37
Network latency average = 19.4845
	minimum = 7
	maximum = 37
Slowest packet = 2864
Flit latency average = 19.5186
	minimum = 7
	maximum = 37
Slowest flit = 2864
Fragmentation average = 0
	minimum = 0
	maximum = 0
Injected packet rate average = 0.009125
	minimum = 0.003 (at node 9)
	maximum = 0.0145 (at node 11)
Accepted packet rate average = 0.00921875
	minimum = 0.006 (at node 11)
	maximum = 0.013 (at node 5)
Injected flit rate average = 0.009125
	minimum = 0.003 (at node 9)
	maximum = 0.0145 (at node 11)
Accepted flit rate average= 0.00921875
	minimum = 0.006 (at node 11)
	maximum = 0.013 (at node 5)
Injected packet length average = 1
Accepted packet length average = 1
Total in-flight flits = 1 (1 measured)
latency change    = 0.00424698
throughput change = 0.0305085
Class 0:
Packet latency average = 18.9071
	minimum = 7
	maximum = 37
Network latency average = 18.9071
	minimum = 7
	maximum = 37
Slowest packet = 2864
Flit latency average = 18.9405
	minimum = 7
	maximum = 37
Slowest flit = 2864
Fragmentation average = 0
	minimum = 0
	maximum = 0
Injected packet rate average = 0.0092
	minimum = 0.0044 (at node 9)
	maximum = 0.0136 (at node 11)
Accepted packet rate average = 0.00925
	minimum = 0.0064 (at node 13)
	maximum = 0.0124 (at node 2)
Injected flit rate average = 0.0092
	minimum = 0.0044 (at node 9)
	maximum = 0.0136 (at node 11)
Accepted flit rate average= 0.00925
	minimum = 0.0064 (at node 13)
	maximum = 0.0124 (at node 2)
Injected packet length average = 1
Accepted packet length average = 1
Total in-flight flits = 2 (2 measured)
latency change    = 0.0305405
throughput change = 0.00337838
Class 0:
Packet latency average = 19.0023
	minimum = 7
	maximum = 39
Network latency average = 19.0023
	minimum = 7
	maximum = 39
Slowest packet = 3117
Flit latency average = 19.0297
	minimum = 7
	maximum = 39
Slowest flit = 3117
Fragmentation average = 0
	minimum = 0
	maximum = 0
Injected packet rate average = 0.0090625
	minimum = 0.00466667 (at node 9)
	maximum = 0.0133333 (at node 11)
Accepted packet rate average = 0.00910417
	minimum = 0.00666667 (at node 11)
	maximum = 0.011 (at node 2)
Injected flit rate average = 0.0090625
	minimum = 0.00466667 (at node 9)
	maximum = 0.0133333 (at node 11)
Accepted flit rate average= 0.00910417
	minimum = 0.00666667 (at node 11)
	maximum = 0.011 (at node 2)
Injected packet length average = 1
Accepted packet length average = 1
Total in-flight flits = 2 (2 measured)
latency change    = 0.00501021
throughput change = 0.0160183
Draining all recorded packets ...
Draining remaining packets ...
Time taken is 4548 cycles
Class 0:
Packet latency average = 18.7831
	minimum = 7
	maximum = 32
Network latency average = 18.7831
	minimum = 7
	maximum = 32
Slowest packet = 3170
Flit latency average = 18.7831
	minimum = 7
	maximum = 32
Slowest flit = 3170
Fragmentation average = 0
	minimum = 0
	maximum = 0
Injected packet rate average = 0.0105
	minimum = 0.002 (at node 6)
	maximum = 0.02 (at node 10)
Accepted packet rate average = 0.010375
	minimum = 0.002 (at node 12)
	maximum = 0.02 (at node 5)
Injected flit rate average = 0.0105
	minimum = 0.002 (at node 6)
	maximum = 0.02 (at node 10)
Accepted flit rate average= 0.010375
	minimum = 0.002 (at node 12)
	maximum = 0.02 (at node 5)
Injected packet length average = 1
Accepted packet length average = 1
Total in-flight flits = 1 (0 measured)
latency change    = 1
throughput change = 1
Class 0:
Packet latency average = 18.7436
	minimum = 7
	maximum = 37
Network latency average = 18.7436
	minimum = 7
	maximum = 37
Slowest packet = 3279
Flit latency average = 18.7436
	minimum = 7
	maximum = 37
Slowest flit = 3279
Fragmentation average = 0
	minimum = 0
	maximum = 0
Injected packet rate average = 0.010125
	minimum = 0.004 (at node 6)
	maximum = 0.015 (at node 7)
Accepted packet rate average = 0.00975
	minimum = 0.006 (at node 15)
	maximum = 0.014 (at node 8)
Injected flit rate average = 0.010125
	minimum = 0.004 (at node 6)
	maximum = 0.015 (at node 7)
Accepted flit rate average= 0.00975
	minimum = 0.006 (at node 15)
	maximum = 0.014 (at node 8)
Injected packet length average = 1
Accepted packet length average = 1
Total in-flight flits = 6 (0 measured)
latency change    = 0.00210967
throughput change = 0.0641026
Class 0:
Packet latency average = 19.7303
	minimum = 7
	maximum = 37
Network latency average = 19.7303
	minimum = 7
	maximum = 37
Slowest packet = 3372
Flit latency average = 19.7303
	minimum = 7
	maximum = 37
Slowest flit = 3372
Fragmentation average = 0
	minimum = 0
	maximum = 0
Injected packet rate average = 0.0105
	minimum = 0.004 (at node 2)
	maximum = 0.028 (at node 12)
Accepted packet rate average = 0.011125
	minimum = 0 (at node 7)
	maximum = 0.022 (at node 6)
Injected flit rate average = 0.0105
	minimum = 0.004 (at node 2)
	maximum = 0.028 (at node 12)
Accepted flit rate average= 0.011125
	minimum = 0 (at node 7)
	maximum = 0.022 (at node 6)
Injected packet length average = 1
Accepted packet length average = 1
Total in-flight flits = 1 (0 measured)
latency change    = 0.0500117
throughput change = 0.123596
Warmed up ...Time used is 1500 cycles
Class 0:
Packet latency average = 20.4239
	minimum = 7
	maximum = 37
Network latency average = 20.4239
	minimum = 7
	maximum = 37
Slowest packet = 3460
Flit latency average = 20.5484
	minimum = 7
	maximum = 37
Slowest flit = 3460
Fragmentation average = 0
	minimum = 0
	maximum = 0
Injected packet rate average = 0.01175
	minimum = 0.004 (at node 1)
	maximum = 0.02 (at node 0)
Accepted packet rate average = 0.011625
	minimum = 0.004 (at node 4)
	maximum = 0.022 (at node 12)
Injected flit rate average = 0.01175
	minimum = 0.004 (at node 1)
	maximum = 0.02 (at node 0)
Accepted flit rate average= 0.011625
	minimum = 0.004 (at node 4)
	maximum = 0.022 (at node 12)
Injected packet length average = 1
Accepted packet length average = 1
Total in-flight flits = 2 (2 measured)
latency change    = 0.033959
throughput change = 0.0430108
Class 0:
Packet latency average = 20.3571
	minimum = 7
	maximum = 37
Network latency average = 20.3571
	minimum = 7
	maximum = 37
Slowest packet = 3460
Flit latency average = 20.426
	minimum = 7
	maximum = 37
Slowest flit = 3460
Fragmentation average = 0
	minimum = 0
	maximum = 0
Injected packet rate average = 0.0106875
	minimum = 0.004 (at node 12)
	maximum = 0.021 (at node 14)
Accepted packet rate average = 0.0105625
	minimum = 0.004 (at node 13)
	maximum = 0.018 (at node 12)
Injected flit rate average = 0.0106875
	minimum = 0.004 (at node 12)
	maximum = 0.021 (at node 14)
Accepted flit rate average= 0.0105625
	minimum = 0.004 (at node 13)
	maximum = 0.018 (at node 12)
Injected packet length average = 1
Accepted packet length average = 1
Total in-flight flits = 3 (3 measured)
latency change    = 0.00327994
throughput change = 0.100592
Class 0:
Packet latency average = 19.7565
	minimum = 7
	maximum = 37
Network latency average = 19.7565
	minimum = 7
	maximum = 37
Slowest packet = 3460
Flit latency average = 19.8095
	minimum = 7
	maximum = 37
Slowest flit = 3460
Fragmentation average = 0
	minimum = 0
	maximum = 0
Injected packet rate average = 0.00970833
	minimum = 0.00466667 (at node 8)
	maximum = 0.0146667 (at node 14)
Accepted packet rate average = 0.009625
	minimum = 0.00533333 (at node 13)
	maximum = 0.0146667 (at node 12)
Injected flit rate average = 0.00970833
	minimum = 0.00466667 (at node 8)
	maximum = 0.0146667 (at node 14)
Accepted flit rate average= 0.009625
	minimum = 0.00533333 (at node 13)
	maximum = 0.0146667 (at node 12)
Injected packet length average = 1
Accepted packet length average = 1
Total in-flight flits = 3 (3 measured)
latency change    = 0.0304012
throughput change = 0.0974026
Class 0:
Packet latency average = 19.9767
	minimum = 7
	maximum = 37
Network latency average = 19.9767
	minimum = 7
	maximum = 37
Slowest packet = 3460
Flit latency average = 20.0166
	minimum = 7
	maximum = 37
Slowest flit = 3460
Fragmentation average = 0
	minimum = 0
	maximum = 0
Injected packet rate average = 0.00940625
	minimum = 0.0055 (at node 2)
	maximum = 0.0135 (at node 11)
Accepted packet rate average = 0.00940625
	minimum = 0.0065 (at node 5)
	maximum = 0.014 (at node 6)
Injected flit rate average = 0.00940625
	minimum = 0.0055 (at node 2)
	maximum = 0.0135 (at node 11)
Accepted flit rate average= 0.00940625
	minimum = 0.0065 (at node 5)
	maximum = 0.014 (at node 6)
Injected packet length average = 1
Accepted packet length average = 1
Total in-flight flits = 1 (1 measured)
latency change    = 0.0110201
throughput change = 0.0232558
Class 0:
Packet latency average = 19.8957
	minimum = 7
	maximum = 37
Network latency average = 19.8957
	minimum = 7
	maximum = 37
Slowest packet = 3460
Flit latency average = 19.928
	minimum = 7
	maximum = 37
Slowest flit = 3460
Fragmentation average = 0
	minimum = 0
	maximum = 0
Injected packet rate average = 0.0094
	minimum = 0.006 (at node 2)
	maximum = 0.0136 (at node 10)
Accepted packet rate average = 0.009375
	minimum = 0.0064 (at node 5)
	maximum = 0.0132 (at node 12)
Injected flit rate average = 0.0094
	minimum = 0.006 (at node 2)
	maximum = 0.0136 (at node 10)
Accepted flit rate average= 0.009375
	minimum = 0.0064 (at node 5)
	maximum = 0.0132 (at node 12)
Injected packet length average = 1
Accepted packet length average = 1
Total in-flight flits = 2 (2 measured)
latency change    = 0.00406845
throughput change = 0.00333333
Class 0:
Packet latency average = 19.7611
	minimum = 7
	maximum = 37
Network latency average = 19.7611
	minimum = 7
	maximum = 37
Slowest packet = 3460
Flit latency average = 19.7881
	minimum = 7
	maximum = 37
Slowest flit = 3460
Fragmentation average = 0
	minimum = 0
	maximum = 0
Injected packet rate average = 0.00947917
	minimum = 0.00633333 (at node 8)
	maximum = 0.0136667 (at node 11)
Accepted packet rate average = 0.0094375
	minimum = 0.00666667 (at node 5)
	maximum = 0.0126667 (at node 12)
Injected flit rate average = 0.00947917
	minimum = 0.00633333 (at node 8)
	maximum = 0.0136667 (at node 11)
Accepted flit rate average= 0.0094375
	minimum = 0.00666667 (at node 5)
	maximum = 0.0126667 (at node 12)
Injected packet length average = 1
Accepted packet length average = 1
Total in-flight flits = 3 (3 measured)
latency change    = 0.00681441
throughput change = 0.00662252
Draining all recorded packets ...
Draining remaining packets ...
Time taken is 4538 cycles
Class 0:
Packet latency average = 19.7206
	minimum = 7
	maximum = 37
Network latency average = 19.7206
	minimum = 7
	maximum = 37
Slowest packet = 3877
Flit latency average = 19.7206
	minimum = 7
	maximum = 37
Slowest flit = 3877
Fragmentation average = 0
	minimum = 0
	maximum = 0
Injected packet rate average = 0.00925
	minimum = 0 (at node 10)
	maximum = 0.018 (at node 14)
Accepted packet rate average = 0.0085
	minimum = 0.002 (at node 2)
	maximum = 0.018 (at node 4)
Injected flit rate average = 0.00925
	minimum = 0 (at node 10)
	maximum = 0.018 (at node 14)
Accepted flit rate average= 0.0085
	minimum = 0.002 (at node 2)
	maximum = 0.018 (at node 4)
Injected packet length average = 1
Accepted packet length average = 1
Total in-flight flits = 6 (0 measured)
latency change    = 1
throughput change = 1
Class 0:
Packet latency average = 20.1562
	minimum = 7
	maximum = 38
Network latency average = 20.1562
	minimum = 7
	maximum = 38
Slowest packet = 3961
Flit latency average = 20.1562
	minimum = 7
	maximum = 38
Slowest flit = 3961
Fragmentation average = 0
	minimum = 0
	maximum = 0
Injected packet rate average = 0.0101875
	minimum = 0.004 (at node 12)
	maximum = 0.017 (at node 14)
Accepted packet rate average = 0.01
	minimum = 0.004 (at node 2)
	maximum = 0.014 (at node 15)
Injected flit rate average = 0.0101875
	minimum = 0.004 (at node 12)
	maximum = 0.017 (at node 14)
Accepted flit rate average= 0.01
	minimum = 0.004 (at node 2)
	maximum = 0.014 (at node 15)
Injected packet length average = 1
Accepted packet length average = 1
Total in-flight flits = 3 (0 measured)
latency change    = 0.0216142
throughput change = 0.15
Class 0:
Packet latency average = 19.3333
	minimum = 7
	maximum = 37
Network latency average = 19.3333
	minimum = 7
	maximum = 37
Slowest packet = 4085
Flit latency average = 19.3333
	minimum = 7
	maximum = 37
Slowest flit = 4085
Fragmentation average = 0
	minimum = 0
	maximum = 0
Injected packet rate average = 0.011375
	minimum = 0.006 (at node 4)
	maximum = 0.022 (at node 8)
Accepted packet rate average = 0.01125
	minimum = 0.002 (at node 4)
	maximum = 0.022 (at node 5)
Injected flit rate average = 0.011375
	minimum = 0.006 (at node 4)
	maximum = 0.022 (at node 8)
Accepted flit rate average= 0.01125
	minimum = 0.002 (at node 4)
	maximum = 0.022 (at node 5)
Injected packet length average = 1
Accepted packet length average = 1
Total in-flight flits = 4 (0 measured)
latency change    = 0.0425647
throughput change = 0.111111
Warmed up ...Time used is 1500 cycles
Class 0:
Packet latency average = 19.2419
	minimum = 7
	maximum = 37
Network latency average = 19.2419
	minimum = 7
	maximum = 37
Slowest packet = 4178
Flit latency average = 19.2576
	minimum = 7
	maximum = 37
Slowest flit = 4178
Fragmentation average = 0
	minimum = 0
	maximum = 0
Injected packet rate average = 0.008375
	minimum = 0.004 (at node 6)
	maximum = 0.012 (at node 2)
Accepted packet rate average = 0.00825
	minimum = 0 (at node 13)
	maximum = 0.014 (at node 3)
Injected flit rate average = 0.008375
	minimum = 0.004 (at node 6)
	maximum = 0.012 (at node 2)
Accepted flit rate average= 0.00825
	minimum = 0 (at node 13)
	maximum = 0.014 (at node 3)
Injected packet length average = 1
Accepted packet length average = 1
Total in-flight flits = 5 (5 measured)
latency change    = 0.00474993
throughput change = 0.363636
Class 0:
Packet latency average = 19.4375
	minimum = 7
	maximum = 37
Network latency average = 19.4375
	minimum = 7
	maximum = 37
Slowest packet = 4178
Flit latency average = 19.4392
	minimum = 7
	maximum = 37
Slowest flit = 4178
Fragmentation average = 0
	minimum = 0
	maximum = 0
Injected packet rate average = 0.009375
	minimum = 0.004 (at node 7)
	maximum = 0.014 (at node 2)
Accepted packet rate average = 0.00925
	minimum = 0.004 (at node 1)
	maximum = 0.017 (at node 3)
Injected flit rate average = 0.009375
	minimum = 0.004 (at node 7)
	maximum = 0.014 (at node 2)
Accepted flit rate average= 0.00925
	minimum = 0.004 (at node 1)
	maximum = 0.017 (at node 3)
Injected packet length average = 1
Accepted packet length average = 1
Total in-flight flits = 6 (6 measured)
latency change    = 0.0100612
throughput change = 0.108108
Class 0:
Packet latency average = 19.8811
	minimum = 7
	maximum = 37
Network latency average = 19.8811
	minimum = 7
	maximum = 37
Slowest packet = 4178
Flit latency average = 19.8745
	minimum = 7
	maximum = 37
Slowest flit = 4178
Fragmentation average = 0
	minimum = 0
	maximum = 0
Injected packet rate average = 0.009625
	minimum = 0.00533333 (at node 7)
	maximum = 0.0153333 (at node 8)
Accepted packet rate average = 0.009625
	minimum = 0.00533333 (at node 8)
	maximum = 0.0166667 (at node 7)
Injected flit rate average = 0.009625
	minimum = 0.00533333 (at node 7)
	maximum = 0.0153333 (at node 8)
Accepted flit rate average= 0.009625
	minimum = 0.00533333 (at node 8)
	maximum = 0.0166667 (at node 7)
Injected packet length average = 1
Accepted packet length average = 1
Total in-flight flits = 4 (4 measured)
latency change    = 0.0223105
throughput change = 0.038961
Class 0:
Packet latency average = 19.8929
	minimum = 7
	maximum = 37
Network latency average = 19.8929
	minimum = 7
	maximum = 37
Slowest packet = 4178
Flit latency average = 19.8878
	minimum = 7
	maximum = 37
Slowest flit = 4178
Fragmentation average = 0
	minimum = 0
	maximum = 0
Injected packet rate average = 0.009625
	minimum = 0.006 (at node 7)
	maximum = 0.013 (at node 8)
Accepted packet rate average = 0.00975
	minimum = 0.0055 (at node 13)
	maximum = 0.0155 (at node 7)
Injected flit rate average = 0.009625
	minimum = 0.006 (at node 7)
	maximum = 0.013 (at node 8)
Accepted flit rate average= 0.00975
	minimum = 0.0055 (at node 13)
	maximum = 0.0155 (at node 7)
Injected packet length average = 1
Accepted packet length average = 1
Total in-flight flits = 0 (0 measured)
latency change    = 0.000593171
throughput change = 0.0128205
Class 0:
Packet latency average = 19.7783
	minimum = 7
	maximum = 37
Network latency average = 19.7783
	minimum = 7
	maximum = 37
Slowest packet = 4178
Flit latency average = 19.7756
	minimum = 7
	maximum = 37
Slowest flit = 4178
Fragmentation average = 0
	minimum = 0
	maximum = 0
Injected packet rate average = 0.01005
	minimum = 0.0064 (at node 7)
	maximum = 0.0156 (at node 8)
Accepted packet rate average = 0.010025
	minimum = 0.0068 (at node 13)
	maximum = 0.0144 (at node 7)
Injected flit rate average = 0.01005
	minimum = 0.0064 (at node 7)
	maximum = 0.0156 (at node 8)
Accepted flit rate average= 0.010025
	minimum = 0.0068 (at node 13)
	maximum = 0.0144 (at node 7)
Injected packet length average = 1
Accepted packet length average = 1
Total in-flight flits = 5 (5 measured)
latency change    = 0.00579015
throughput change = 0.0274314
Draining all recorded packets ...
Draining remaining packets ...
Time taken is 4024 cycles
Class 0:
Packet latency average = 19.0405
	minimum = 7
	maximum = 37
Network latency average = 19.0405
	minimum = 7
	maximum = 37
Slowest packet = 4560
Flit latency average = 19.0405
	minimum = 7
	maximum = 37
Slowest flit = 4560
Fragmentation average = 0
	minimum = 0
	maximum = 0
Injected packet rate average = 0.009625
	minimum = 0.004 (at node 2)
	maximum = 0.02 (at node 5)
Accepted packet rate average = 0.00925
	minimum = 0.004 (at node 2)
	maximum = 0.026 (at node 15)
Injected flit rate average = 0.009625
	minimum = 0.004 (at node 2)
	maximum = 0.02 (at node 5)
Accepted flit rate average= 0.00925
	minimum = 0.004 (at node 2)
	maximum = 0.026 (at node 15)
Injected packet length average = 1
Accepted packet length average = 1
Total in-flight flits = 3 (0 measured)
latency change    = 1
throughput change = 1
Class 0:
Packet latency average = 18.7024
	minimum = 7
	maximum = 37
Network latency average = 18.7024
	minimum = 7
	maximum = 37
Slowest packet = 4560
Flit latency average = 18.7024
	minimum = 7
	maximum = 37
Slowest flit = 4560
Fragmentation average = 0
	minimum = 0
	maximum = 0
Injected packet rate average = 0.0108125
	minimum = 0.006 (at node 14)
	maximum = 0.02 (at node 5)
Accepted packet rate average = 0.0105
	minimum = 0.007 (at node 1)
	maximum = 0.018 (at node 15)
Injected flit rate average = 0.0108125
	minimum = 0.006 (at node 14)
	maximum = 0.02 (at node 5)
Accepted flit rate average= 0.0105
	minimum = 0.007 (at node 1)
	maximum = 0.018 (at node 15)
Injected packet length average = 1
Accepted packet length average = 1
Total in-flight flits = 5 (0 measured)
latency change    = 0.0180811
throughput change = 0.119048
Class 0:
Packet latency average = 20.3623
	minimum = 7
	maximum = 37
Network latency average = 20.3623
	minimum = 7
	maximum = 37
Slowest packet = 4733
Flit latency average = 20.3623
	minimum = 7
	maximum = 37
Slowest flit = 4733
Fragmentation average = 0
	minimum = 0
	maximum = 0
Injected packet rate average = 0.008125
	minimum = 0.002 (at node 0)
	maximum = 0.014 (at node 12)
Accepted packet rate average = 0.008625
	minimum = 0.002 (at node 8)
	maximum = 0.024 (at node 1)
Injected flit rate average = 0.008125
	minimum = 0.002 (at node 0)
	maximum = 0.014 (at node 12)
Accepted flit rate average= 0.008625
	minimum = 0.002 (at node 8)
	maximum = 0.024 (at node 1)
Injected packet length average = 1
Accepted packet length average = 1
Total in-flight flits = 1 (0 measured)
latency change    = 0.0815201
throughput change = 0.217391
Warmed up ...Time used is 1500 cycles
Class 0:
Packet latency average = 18.9286
	minimum = 7
	maximum = 37
Network latency average = 18.9286
	minimum = 7
	maximum = 37
Slowest packet = 4789
Flit latency average = 18.9718
	minimum = 7
	maximum = 37
Slowest flit = 4789
Fragmentation average = 0
	minimum = 0
	maximum = 0
Injected packet rate average = 0.009125
	minimum = 0.002 (at node 3)
	maximum = 0.018 (at node 15)
Accepted packet rate average = 0.008875
	minimum = 0.002 (at node 6)
	maximum = 0.018 (at node 8)
Injected flit rate average = 0.009125
	minimum = 0.002 (at node 3)
	maximum = 0.018 (at node 15)
Accepted flit rate average= 0.008875
	minimum = 0.002 (at node 6)
	maximum = 0.018 (at node 8)
Injected packet length average = 1
Accepted packet length average = 1
Total in-flight flits = 3 (3 measured)
latency change    = 0.0757451
throughput change = 0.028169
Class 0:
Packet latency average = 19.8562
	minimum = 7
	maximum = 38
Network latency average = 19.8562
	minimum = 7
	maximum = 38
Slowest packet = 4908
Flit latency average = 19.8696
	minimum = 7
	maximum = 38
Slowest flit = 4908
Fragmentation average = 0
	minimum = 0
	maximum = 0
Injected packet rate average = 0.010125
	minimum = 0.004 (at node 9)
	maximum = 0.019 (at node 0)
Accepted packet rate average = 0.0100625
	minimum = 0.003 (at node 6)
	maximum = 0.017 (at node 8)
Injected flit rate average = 0.010125
	minimum = 0.004 (at node 9)
	maximum = 0.019 (at node 0)
Accepted flit rate average= 0.0100625
	minimum = 0.003 (at node 6)
	maximum = 0.017 (at node 8)
Injected packet length average = 1
Accepted packet length average = 1
Total in-flight flits = 2 (2 measured)
latency change    = 0.0467197
throughput change = 0.118012
Class 0:
Packet latency average = 19.6555
	minimum = 7
	maximum = 38
Network latency average = 19.6555
	minimum = 7
	maximum = 38
Slowest packet = 4908
Flit latency average = 19.6653
	minimum = 7
	maximum = 38
Slowest flit = 4908
Fragmentation average = 0
	minimum = 0
	maximum = 0
Injected packet rate average = 0.00995833
	minimum = 0.006 (at node 3)
	maximum = 0.014 (at node 10)
Accepted packet rate average = 0.00995833
	minimum = 0.00333333 (at node 6)
	maximum = 0.0153333 (at node 8)
Injected flit rate average = 0.00995833
	minimum = 0.006 (at node 3)
	maximum = 0.014 (at node 10)
Accepted flit rate average= 0.00995833
	minimum = 0.00333333 (at node 6)
	maximum = 0.0153333 (at node 8)
Injected packet length average = 1
Accepted packet length average = 1
Total in-flight flits = 1 (1 measured)
latency change    = 0.0102154
throughput change = 0.0104603
Class 0:
Packet latency average = 19.9161
	minimum = 7
	maximum = 46
Network latency average = 19.9161
	minimum = 7
	maximum = 46
Slowest packet = 5024
Flit latency average = 19.9226
	minimum = 7
	maximum = 46
Slowest flit = 5024
Fragmentation average = 0
	minimum = 0
	maximum = 0
Injected packet rate average = 0.0102188
	minimum = 0.0075 (at node 6)
	maximum = 0.015 (at node 15)
Accepted packet rate average = 0.0100938
	minimum = 0.0065 (at node 6)
	maximum = 0.015 (at node 8)
Injected flit rate average = 0.0102188
	minimum = 0.0075 (at node 6)
	maximum = 0.015 (at node 15)
Accepted flit rate average= 0.0100938
	minimum = 0.0065 (at node 6)
	maximum = 0.015 (at node 8)
Injected packet length average = 1
Accepted packet length average = 1
Total in-flight flits = 5 (5 measured)
latency change    = 0.0130892
throughput change = 0.0134159
Class 0:
Packet latency average = 19.71
	minimum = 7
	maximum = 46
Network latency average = 19.71
	minimum = 7
	maximum = 46
Slowest packet = 5024
Flit latency average = 19.7157
	minimum = 7
	maximum = 46
Slowest flit = 5024
Fragmentation average = 0
	minimum = 0
	maximum = 0
Injected packet rate average = 0.010075
	minimum = 0.0076 (at node 7)
	maximum = 0.0136 (at node 15)
Accepted packet rate average = 0.010025
	minimum = 0.0068 (at node 6)
	maximum = 0.0132 (at node 14)
Injected flit rate average = 0.010075
	minimum = 0.0076 (at node 7)
	maximum = 0.0136 (at node 15)
Accepted flit rate average= 0.010025
	minimum = 0.0068 (at node 6)
	maximum = 0.0132 (at node 14)
Injected packet length average = 1
Accepted packet length average = 1
Total in-flight flits = 3 (3 measured)
latency change    = 0.0104591
throughput change = 0.00685786
Draining all recorded packets ...
Draining remaining packets ...
Time taken is 4024 cycles
Class 0:
Packet latency average = 20.3889
	minimum = 7
	maximum = 37
Network latency average = 20.3889
	minimum = 7
	maximum = 37
Slowest packet = 5199
Flit latency average = 20.3889
	minimum = 7
	maximum = 37
Slowest flit = 5199
Fragmentation average = 0
	minimum = 0
	maximum = 0
Injected packet rate average = 0.00925
	minimum = 0.004 (at node 6)
	maximum = 0.016 (at node 3)
Accepted packet rate average = 0.009
	minimum = 0.002 (at node 8)
	maximum = 0.014 (at node 14)
Injected flit rate average = 0.00925
	minimum = 0.004 (at node 6)
	maximum = 0.016 (at node 3)
Accepted flit rate average= 0.009
	minimum = 0.002 (at node 8)
	maximum = 0.014 (at node 14)
Injected packet length average = 1
Accepted packet length average = 1
Total in-flight flits = 2 (0 measured)
latency change    = 1
throughput change = 1
Class 0:
Packet latency average = 20.0191
	minimum = 7
	maximum = 37
Network latency average = 20.0191
	minimum = 7
	maximum = 37
Slowest packet = 5199
Flit latency average = 20.0191
	minimum = 7
	maximum = 37
Slowest flit = 5199
Fragmentation average = 0
	minimum = 0
	maximum = 0
Injected packet rate average = 0.009875
	minimum = 0.005 (at node 5)
	maximum = 0.017 (at node 12)
Accepted packet rate average = 0.0098125
	minimum = 0.004 (at node 8)
	maximum = 0.016 (at node 1)
Injected flit rate average = 0.009875
	minimum = 0.005 (at node 5)
	maximum = 0.017 (at node 12)
Accepted flit rate average= 0.0098125
	minimum = 0.004 (at node 8)
	maximum = 0.016 (at node 1)
Injected packet length average = 1
Accepted packet length average = 1
Total in-flight flits = 1 (0 measured)
latency change    = 0.0184714
throughput change = 0.0828025
Class 0:
Packet latency average = 19.8082
	minimum = 7
	maximum = 32
Network latency average = 19.8082
	minimum = 7
	maximum = 32
Slowest packet = 5336
Flit latency average = 19.8082
	minimum = 7
	maximum = 32
Slowest flit = 5336
Fragmentation average = 0
	minimum = 0
	maximum = 0
Injected packet rate average = 0.009125
	minimum = 0.004 (at node 5)
	maximum = 0.018 (at node 8)
Accepted packet rate average = 0.009125
	minimum = 0 (at node 10)
	maximum = 0.016 (at node 7)
Injected flit rate average = 0.009125
	minimum = 0.004 (at node 5)
	maximum = 0.018 (at node 8)
Accepted flit rate average= 0.009125
	minimum = 0 (at node 10)
	maximum = 0.016 (at node 7)
Injected packet length average = 1
Accepted packet length average = 1
Total in-flight flits = 1 (0 measured)
latency change    = 0.0106465
throughput change = 0.0753425
Warmed up ...Time used is 1500 cycles
Class 0:
Packet latency average = 20.873
	minimum = 7
	maximum = 32
Network latency average = 20.873
	minimum = 7
	maximum = 32
Slowest packet = 5405
Flit latency average = 20.9688
	minimum = 7
	maximum = 32
Slowest flit = 5405
Fragmentation average = 0
	minimum = 0
	maximum = 0
Injected packet rate average = 0.008375
	minimum = 0.004 (at node 2)
	maximum = 0.014 (at node 9)
Accepted packet rate average = 0.008
	minimum = 0.004 (at node 2)
	maximum = 0.02 (at node 7)
Injected flit rate average = 0.008375
	minimum = 0.004 (at node 2)
	maximum = 0.014 (at node 9)
Accepted flit rate average= 0.008
	minimum = 0.004 (at node 2)
	maximum = 0.02 (at node 7)
Injected packet length average = 1
Accepted packet length average = 1
Total in-flight flits = 4 (4 measured)
latency change    = 0.0510131
throughput change = 0.140625
Class 0:
Packet latency average = 20.3714
	minimum = 7
	maximum = 37
Network latency average = 20.3714
	minimum = 7
	maximum = 37
Slowest packet = 5482
Flit latency average = 20.4184
	minimum = 7
	maximum = 37
Slowest flit = 5482
Fragmentation average = 0
	minimum = 0
	maximum = 0
Injected packet rate average = 0.0088125
	minimum = 0.004 (at node 11)
	maximum = 0.015 (at node 12)
Accepted packet rate average = 0.0088125
	minimum = 0.004 (at node 11)
	maximum = 0.017 (at node 7)
Injected flit rate average = 0.0088125
	minimum = 0.004 (at node 11)
	maximum = 0.015 (at node 12)
Accepted flit rate average= 0.0088125
	minimum = 0.004 (at node 11)
	maximum = 0.017 (at node 7)
Injected packet length average = 1
Accepted packet length average = 1
Total in-flight flits = 1 (1 measured)
latency change    = 0.0246221
throughput change = 0.0921986
Class 0:
Packet latency average = 20.2762
	minimum = 7
	maximum = 37
Network latency average = 20.2762
	minimum = 7
	maximum = 37
Slowest packet = 5482
Flit latency average = 20.3081
	minimum = 7
	maximum = 37
Slowest flit = 5482
Fragmentation average = 0
	minimum = 0
	maximum = 0
Injected packet rate average = 0.00883333
	minimum = 0.004 (at node 0)
	maximum = 0.0126667 (at node 12)
Accepted packet rate average = 0.00879167
	minimum = 0.006 (at node 6)
	maximum = 0.014 (at node 7)
Injected flit rate average = 0.00883333
	minimum = 0.004 (at node 0)
	maximum = 0.0126667 (at node 12)
Accepted flit rate average= 0.00879167
	minimum = 0.006 (at node 6)
	maximum = 0.014 (at node 7)
Injected packet length average = 1
Accepted packet length average = 1
Total in-flight flits = 2 (2 measured)
latency change    = 0.00469704
throughput change = 0.00236967
Class 0:
Packet latency average = 20.0825
	minimum = 7
	maximum = 37
Network latency average = 20.0825
	minimum = 7
	maximum = 37
Slowest packet = 5482
Flit latency average = 20.1062
	minimum = 7
	maximum = 37
Slowest flit = 5482
Fragmentation average = 0
	minimum = 0
	maximum = 0
Injected packet rate average = 0.00925
	minimum = 0.0055 (at node 0)
	maximum = 0.014 (at node 6)
Accepted packet rate average = 0.009125
	minimum = 0.0065 (at node 13)
	maximum = 0.0125 (at node 7)
Injected flit rate average = 0.00925
	minimum = 0.0055 (at node 0)
	maximum = 0.014 (at node 6)
Accepted flit rate average= 0.009125
	minimum = 0.0065 (at node 13)
	maximum = 0.0125 (at node 7)
Injected packet length average = 1
Accepted packet length average = 1
Total in-flight flits = 5 (5 measured)
latency change    = 0.00964604
throughput change = 0.0365297
Class 0:
Packet latency average = 19.6474
	minimum = 7
	maximum = 37
Network latency average = 19.6474
	minimum = 7
	maximum = 37
Slowest packet = 5482
Flit latency average = 19.6676
	minimum = 7
	maximum = 37
Slowest flit = 5482
Fragmentation average = 0
	minimum = 0
	maximum = 0
Injected packet rate average = 0.00915
	minimum = 0.0056 (at node 11)
	maximum = 0.0128 (at node 13)
Accepted packet rate average = 0.0091
	minimum = 0.0068 (at node 2)
	maximum = 0.0116 (at node 7)
Injected flit rate average = 0.00915
	minimum = 0.0056 (at node 11)
	maximum = 0.0128 (at node 13)
Accepted flit rate average= 0.0091
	minimum = 0.0068 (at node 2)
	maximum = 0.0116 (at node 7)
Injected packet length average = 1
Accepted packet length average = 1
Total in-flight flits = 3 (3 measured)
latency change    = 0.022145
throughput change = 0.00274725
Draining all recorded packets ...
Draining remaining packets ...
Time taken is 4042 cycles
Class 0:
Packet latency average = 20.6829
	minimum = 7
	maximum = 42
Network latency average = 20.6829
	minimum = 7
	maximum = 42
Slowest packet = 5773
Flit latency average = 20.6829
	minimum = 7
	maximum = 42
Slowest flit = 5773
Fragmentation average = 0
	minimum = 0
	maximum = 0
Injected packet rate average = 0.010625
	minimum = 0.002 (at node 7)
	maximum = 0.02 (at node 4)
Accepted packet rate average = 0.01025
	minimum = 0.004 (at node 11)
	maximum = 0.014 (at node 1)
Injected flit rate average = 0.010625
	minimum = 0.002 (at node 7)
	maximum = 0.02 (at node 4)
Accepted flit rate average= 0.01025
	minimum = 0.004 (at node 11)
	maximum = 0.014 (at node 1)
Injected packet length average = 1
Accepted packet length average = 1
Total in-flight flits = 3 (0 measured)
latency change    = 1
throughput change = 1
Class 0:
Packet latency average = 19.9161
	minimum = 7
	maximum = 42
Network latency average = 19.9161
	minimum = 7
	maximum = 42
Slowest packet = 5773
Flit latency average = 19.9161
	minimum = 7
	maximum = 42
Slowest flit = 5773
Fragmentation average = 0
	minimum = 0
	maximum = 0
Injected packet rate average = 0.0098125
	minimum = 0.004 (at node 9)
	maximum = 0.015 (at node 12)
Accepted packet rate average = 0.0096875
	minimum = 0.006 (at node 11)
	maximum = 0.014 (at node 3)
Injected flit rate average = 0.0098125
	minimum = 0.004 (at node 9)
	maximum = 0.015 (at node 12)
Accepted flit rate average= 0.0096875
	minimum = 0.006 (at node 11)
	maximum = 0.014 (at node 3)
Injected packet length average = 1
Accepted packet length average = 1
Total in-flight flits = 2 (0 measured)
latency change    = 0.0385013
throughput change = 0.0580645
Class 0:
Packet latency average = 19.1548
	minimum = 7
	maximum = 32
Network latency average = 19.1548
	minimum = 7
	maximum = 32
Slowest packet = 5938
Flit latency average = 19.1548
	minimum = 7
	maximum = 32
Slowest flit = 5938
Fragmentation average = 0
	minimum = 0
	maximum = 0
Injected packet rate average = 0.010625
	minimum = 0.002 (at node 7)
	maximum = 0.016 (at node 0)
Accepted packet rate average = 0.0105
	minimum = 0 (at node 4)
	maximum = 0.018 (at node 5)
Injected flit rate average = 0.010625
	minimum = 0.002 (at node 7)
	maximum = 0.016 (at node 0)
Accepted flit rate average= 0.0105
	minimum = 0 (at node 4)
	maximum = 0.018 (at node 5)
Injected packet length average = 1
Accepted packet length average = 1
Total in-flight flits = 3 (0 measured)
latency change    = 0.0397482
throughput change = 0.077381
Warmed up ...Time used is 1500 cycles
Class 0:
Packet latency average = 18.2766
	minimum = 7
	maximum = 37
Network latency average = 18.2766
	minimum = 7
	maximum = 37
Slowest packet = 6102
Flit latency average = 18.1856
	minimum = 7
	maximum = 37
Slowest flit = 6102
Fragmentation average = 0
	minimum = 0
	maximum = 0
Injected packet rate average = 0.01225
	minimum = 0.004 (at node 0)
	maximum = 0.02 (at node 11)
Accepted packet rate average = 0.012125
	minimum = 0.002 (at node 5)
	maximum = 0.018 (at node 3)
Injected flit rate average = 0.01225
	minimum = 0.004 (at node 0)
	maximum = 0.02 (at node 11)
Accepted flit rate average= 0.012125
	minimum = 0.002 (at node 5)
	maximum = 0.018 (at node 3)
Injected packet length average = 1
Accepted packet length average = 1
Total in-flight flits = 4 (4 measured)
latency change    = 0.0480487
throughput change = 0.134021
Class 0:
Packet latency average = 19.3547
	minimum = 7
	maximum = 37
Network latency average = 19.3547
	minimum = 7
	maximum = 37
Slowest packet = 6102
Flit latency average = 19.2857
	minimum = 7
	maximum = 37
Slowest flit = 6102
Fragmentation average = 0
	minimum = 0
	maximum = 0
Injected packet rate average = 0.0109375
	minimum = 0.004 (at node 1)
	maximum = 0.016 (at node 6)
Accepted packet rate average = 0.0109375
	minimum = 0.006 (at node 11)
	maximum = 0.015 (at node 8)
Injected flit rate average = 0.0109375
	minimum = 0.004 (at node 1)
	maximum = 0.016 (at node 6)
Accepted flit rate average= 0.0109375
	minimum = 0.006 (at node 11)
	maximum = 0.015 (at node 8)
Injected packet length average = 1
Accepted packet length average = 1
Total in-flight flits = 3 (3 measured)
latency change    = 0.0557001
throughput change = 0.108571
Class 0:
Packet latency average = 19.3527
	minimum = 7
	maximum = 37
Network latency average = 19.3527
	minimum = 7
	maximum = 37
Slowest packet = 6102
Flit latency average = 19.3033
	minimum = 7
	maximum = 37
Slowest flit = 6102
Fragmentation average = 0
	minimum = 0
	maximum = 0
Injected packet rate average = 0.0101667
	minimum = 0.006 (at node 13)
	maximum = 0.016 (at node 11)
Accepted packet rate average = 0.0101667
	minimum = 0.00666667 (at node 15)
	maximum = 0.0126667 (at node 0)
Injected flit rate average = 0.0101667
	minimum = 0.006 (at node 13)
	maximum = 0.016 (at node 11)
Accepted flit rate average= 0.0101667
	minimum = 0.00666667 (at node 15)
	maximum = 0.0126667 (at node 0)
Injected packet length average = 1
Accepted packet length average = 1
Total in-flight flits = 3 (3 measured)
latency change    = 0.000100971
throughput change = 0.0758197
Class 0:
Packet latency average = 19.5994
	minimum = 7
	maximum = 37
Network latency average = 19.5994
	minimum = 7
	maximum = 37
Slowest packet = 6102
Flit latency average = 19.56
	minimum = 7
	maximum = 37
Slowest flit = 6102
Fragmentation average = 0
	minimum = 0
	maximum = 0
Injected packet rate average = 0.010125
	minimum = 0.007 (at node 13)
	maximum = 0.0135 (at node 11)
Accepted packet rate average = 0.0101563
	minimum = 0.008 (at node 11)
	maximum = 0.0135 (at node 0)
Injected flit rate average = 0.010125
	minimum = 0.007 (at node 13)
	maximum = 0.0135 (at node 11)
Accepted flit rate average= 0.0101563
	minimum = 0.008 (at node 11)
	maximum = 0.0135 (at node 0)
Injected packet length average = 1
Accepted packet length average = 1
Total in-flight flits = 2 (2 measured)
latency change    = 0.0125862
throughput change = 0.00102564
Class 0:
Packet latency average = 19.6073
	minimum = 7
	maximum = 37
Network latency average = 19.6073
	minimum = 7
	maximum = 37
Slowest packet = 6102
Flit latency average = 19.5763
	minimum = 7
	maximum = 37
Slowest flit = 6102
Fragmentation average = 0
	minimum = 0
	maximum = 0
Injected packet rate average = 0.01035
	minimum = 0.008 (at node 1)
	maximum = 0.0128 (at node 2)
Accepted packet rate average = 0.010325
	minimum = 0.008 (at node 14)
	maximum = 0.0136 (at node 7)
Injected flit rate average = 0.01035
	minimum = 0.008 (at node 1)
	maximum = 0.0128 (at node 2)
Accepted flit rate average= 0.010325
	minimum = 0.008 (at node 14)
	maximum = 0.0136 (at node 7)
Injected packet length average = 1
Accepted packet length average = 1
Total in-flight flits = 4 (4 measured)
latency change    = 0.000404859
throughput change = 0.0163438
Class 0:
Packet latency average = 19.5456
	minimum = 7
	maximum = 37
Network latency average = 19.5456
	minimum = 7
	maximum = 37
Slowest packet = 6102
Flit latency average = 19.5202
	minimum = 7
	maximum = 37
Slowest flit = 6102
Fragmentation average = 0
	minimum = 0
	maximum = 0
Injected packet rate average = 0.0102917
	minimum = 0.00766667 (at node 5)
	maximum = 0.013 (at node 7)
Accepted packet rate average = 0.0103333
	minimum = 0.008 (at node 14)
	maximum = 0.0123333 (at node 2)
Injected flit rate average = 0.0102917
	minimum = 0.00766667 (at node 5)
	maximum = 0.013 (at node 7)
Accepted flit rate average= 0.0103333
	minimum = 0.008 (at node 14)
	maximum = 0.0123333 (at node 2)
Injected packet length average = 1
Accepted packet length average = 1
Total in-flight flits = 1 (1 measured)
latency change    = 0.0031556
throughput change = 0.000806452
Draining all recorded packets ...
Draining remaining packets ...
Time taken is 4550 cycles
Class 0:
Packet latency average = 20.2941
	minimum = 7
	maximum = 37
Network latency average = 20.2941
	minimum = 7
	maximum = 37
Slowest packet = 6537
Flit latency average = 20.2941
	minimum = 7
	maximum = 37
Slowest flit = 6537
Fragmentation average = 0
	minimum = 0
	maximum = 0
Injected packet rate average = 0.011
	minimum = 0.004 (at node 6)
	maximum = 0.02 (at node 2)
Accepted packet rate average = 0.010625
	minimum = 0.004 (at node 15)
	maximum = 0.018 (at node 3)
Injected flit rate average = 0.011
	minimum = 0.004 (at node 6)
	maximum = 0.02 (at node 2)
Accepted flit rate average= 0.010625
	minimum = 0.004 (at node 15)
	maximum = 0.018 (at node 3)
Injected packet length average = 1
Accepted packet length average = 1
Total in-flight flits = 3 (0 measured)
latency change    = 1
throughput change = 1
Class 0:
Packet latency average = 19.8929
	minimum = 7
	maximum = 37
Network latency average = 19.8929
	minimum = 7
	maximum = 37
Slowest packet = 6537
Flit latency average = 19.8929
	minimum = 7
	maximum = 37
Slowest flit = 6537
Fragmentation average = 0
	minimum = 0
	maximum = 0
Injected packet rate average = 0.0105
	minimum = 0.005 (at node 0)
	maximum = 0.016 (at node 2)
Accepted packet rate average = 0.0105
	minimum = 0.004 (at node 15)
	maximum = 0.016 (at node 13)
Injected flit rate average = 0.0105
	minimum = 0.005 (at node 0)
	maximum = 0.016 (at node 2)
Accepted flit rate average= 0.0105
	minimum = 0.004 (at node 15)
	maximum = 0.016 (at node 13)
Injected packet length average = 1
Accepted packet length average = 1
Total in-flight flits = 0 (0 measured)
latency change    = 0.0201711
throughput change = 0.0119048
Class 0:
Packet latency average = 18.72
	minimum = 7
	maximum = 36
Network latency average = 18.72
	minimum = 7
	maximum = 36
Slowest packet = 6733
Flit latency average = 18.72
	minimum = 7
	maximum = 36
Slowest flit = 6733
Fragmentation average = 0
	minimum = 0
	maximum = 0
Injected packet rate average = 0.009625
	minimum = 0.004 (at node 0)
	maximum = 0.014 (at node 12)
Accepted packet rate average = 0.009375
	minimum = 0.002 (at node 9)
	maximum = 0.02 (at node 10)
Injected flit rate average = 0.009625
	minimum = 0.004 (at node 0)
	maximum = 0.014 (at node 12)
Accepted flit rate average= 0.009375
	minimum = 0.002 (at node 9)
	maximum = 0.02 (at node 10)
Injected packet length average = 1
Accepted packet length average = 1
Total in-flight flits = 2 (0 measured)
latency change    = 0.0626526
throughput change = 0.12
Warmed up ...Time used is 1500 cycles
Class 0:
Packet latency average = 19.9
	minimum = 7
	maximum = 37
Network latency average = 19.9
	minimum = 7
	maximum = 37
Slowest packet = 6787
Flit latency average = 20.0122
	minimum = 7
	maximum = 37
Slowest flit = 6787
Fragmentation average = 0
	minimum = 0
	maximum = 0
Injected packet rate average = 0.0105
	minimum = 0.002 (at node 13)
	maximum = 0.016 (at node 4)
Accepted packet rate average = 0.01025
	minimum = 0.002 (at node 4)
	maximum = 0.018 (at node 3)
Injected flit rate average = 0.0105
	minimum = 0.002 (at node 13)
	maximum = 0.016 (at node 4)
Accepted flit rate average= 0.01025
	minimum = 0.002 (at node 4)
	maximum = 0.018 (at node 3)
Injected packet length average = 1
Accepted packet length average = 1
Total in-flight flits = 4 (4 measured)
latency change    = 0.0592965
throughput change = 0.0853659
Class 0:
Packet latency average = 20.183
	minimum = 7
	maximum = 37
Network latency average = 20.183
	minimum = 7
	maximum = 37
Slowest packet = 6787
Flit latency average = 20.2387
	minimum = 7
	maximum = 37
Slowest flit = 6787
Fragmentation average = 0
	minimum = 0
	maximum = 0
Injected packet rate average = 0.00975
	minimum = 0.005 (at node 13)
	maximum = 0.013 (at node 4)
Accepted packet rate average = 0.0096875
	minimum = 0.003 (at node 4)
	maximum = 0.016 (at node 3)
Injected flit rate average = 0.00975
	minimum = 0.005 (at node 13)
	maximum = 0.013 (at node 4)
Accepted flit rate average= 0.0096875
	minimum = 0.003 (at node 4)
	maximum = 0.016 (at node 3)
Injected packet length average = 1
Accepted packet length average = 1
Total in-flight flits = 3 (3 measured)
latency change    = 0.014022
throughput change = 0.0580645
Class 0:
Packet latency average = 20.0664
	minimum = 7
	maximum = 37
Network latency average = 20.0664
	minimum = 7
	maximum = 37
Slowest packet = 6787
Flit latency average = 20.1029
	minimum = 7
	maximum = 37
Slowest flit = 6787
Fragmentation average = 0
	minimum = 0
	maximum = 0
Injected packet rate average = 0.0102083
	minimum = 0.00666667 (at node 2)
	maximum = 0.0153333 (at node 14)
Accepted packet rate average = 0.010125
	minimum = 0.00533333 (at node 5)
	maximum = 0.0166667 (at node 3)
Injected flit rate average = 0.0102083
	minimum = 0.00666667 (at node 2)
	maximum = 0.0153333 (at node 14)
Accepted flit rate average= 0.010125
	minimum = 0.00533333 (at node 5)
	maximum = 0.0166667 (at node 3)
Injected packet length average = 1
Accepted packet length average = 1
Total in-flight flits = 4 (4 measured)
latency change    = 0.00581153
throughput change = 0.0432099
Class 0:
Packet latency average = 20.2681
	minimum = 7
	maximum = 37
Network latency average = 20.2681
	minimum = 7
	maximum = 37
Slowest packet = 6787
Flit latency average = 20.2947
	minimum = 7
	maximum = 37
Slowest flit = 6787
Fragmentation average = 0
	minimum = 0
	maximum = 0
Injected packet rate average = 0.010125
	minimum = 0.008 (at node 9)
	maximum = 0.014 (at node 14)
Accepted packet rate average = 0.00996875
	minimum = 0.007 (at node 1)
	maximum = 0.0145 (at node 11)
Injected flit rate average = 0.010125
	minimum = 0.008 (at node 9)
	maximum = 0.014 (at node 14)
Accepted flit rate average= 0.00996875
	minimum = 0.007 (at node 1)
	maximum = 0.0145 (at node 11)
Injected packet length average = 1
Accepted packet length average = 1
Total in-flight flits = 7 (7 measured)
latency change    = 0.00995399
throughput change = 0.015674
Class 0:
Packet latency average = 20.2407
	minimum = 7
	maximum = 37
Network latency average = 20.2407
	minimum = 7
	maximum = 37
Slowest packet = 6787
Flit latency average = 20.2617
	minimum = 7
	maximum = 37
Slowest flit = 6787
Fragmentation average = 0
	minimum = 0
	maximum = 0
Injected packet rate average = 0.010075
	minimum = 0.0072 (at node 12)
	maximum = 0.0148 (at node 14)
Accepted packet rate average = 0.010125
	minimum = 0.0076 (at node 1)
	maximum = 0.014 (at node 11)
Injected flit rate average = 0.010075
	minimum = 0.0072 (at node 12)
	maximum = 0.0148 (at node 14)
Accepted flit rate average= 0.010125
	minimum = 0.0076 (at node 1)
	maximum = 0.014 (at node 11)
Injected packet length average = 1
Accepted packet length average = 1
Total in-flight flits = 0 (0 measured)
latency change    = 0.00135588
throughput change = 0.0154321
Draining all recorded packets ...
Draining remaining packets ...
Time taken is 4001 cycles
Class 0:
Packet latency average = 19.8889
	minimum = 7
	maximum = 37
Network latency average = 19.8889
	minimum = 7
	maximum = 37
Slowest packet = 7198
Flit latency average = 19.8889
	minimum = 7
	maximum = 37
Slowest flit = 7198
Fragmentation average = 0
	minimum = 0
	maximum = 0
Injected packet rate average = 0.01175
	minimum = 0.004 (at node 2)
	maximum = 0.02 (at node 3)
Accepted packet rate average = 0.01125
	minimum = 0.004 (at node 4)
	maximum = 0.022 (at node 1)
Injected flit rate average = 0.01175
	minimum = 0.004 (at node 2)
	maximum = 0.02 (at node 3)
Accepted flit rate average= 0.01125
	minimum = 0.004 (at node 4)
	maximum = 0.022 (at node 1)
Injected packet length average = 1
Accepted packet length average = 1
Total in-flight flits = 4 (0 measured)
latency change    = 1
throughput change = 1
Class 0:
Packet latency average = 19.4381
	minimum = 7
	maximum = 37
Network latency average = 19.4381
	minimum = 7
	maximum = 37
Slowest packet = 7198
Flit latency average = 19.4381
	minimum = 7
	maximum = 37
Slowest flit = 7198
Fragmentation average = 0
	minimum = 0
	maximum = 0
Injected packet rate average = 0.0123125
	minimum = 0.004 (at node 12)
	maximum = 0.021 (at node 15)
Accepted packet rate average = 0.012125
	minimum = 0.009 (at node 2)
	maximum = 0.018 (at node 15)
Injected flit rate average = 0.0123125
	minimum = 0.004 (at node 12)
	maximum = 0.021 (at node 15)
Accepted flit rate average= 0.012125
	minimum = 0.009 (at node 2)
	maximum = 0.018 (at node 15)
Injected packet length average = 1
Accepted packet length average = 1
Total in-flight flits = 3 (0 measured)
latency change    = 0.0231887
throughput change = 0.0721649
Class 0:
Packet latency average = 19.0506
	minimum = 7
	maximum = 37
Network latency average = 19.0506
	minimum = 7
	maximum = 37
Slowest packet = 7375
Flit latency average = 19.0506
	minimum = 7
	maximum = 37
Slowest flit = 7375
Fragmentation average = 0
	minimum = 0
	maximum = 0
Injected packet rate average = 0.009625
	minimum = 0.002 (at node 8)
	maximum = 0.018 (at node 7)
Accepted packet rate average = 0.009875
	minimum = 0.002 (at node 9)
	maximum = 0.02 (at node 11)
Injected flit rate average = 0.009625
	minimum = 0.002 (at node 8)
	maximum = 0.018 (at node 7)
[...]
	minimum = 7
	maximum = 32
Network latency average = 18.875
	minimum = 7
	maximum = 32
Slowest packet = 30591
Flit latency average = 18.875
	minimum = 7
	maximum = 32
Slowest flit = 30591
Fragmentation average = 0
	minimum = 0
	maximum = 0
Injected packet rate average = 0.010375
	minimum = 0 (at node 8)
	maximum = 0.018 (at node 5)
Accepted packet rate average = 0.01
	minimum = 0.006 (at node 3)
	maximum = 0.018 (at node 6)
Injected flit rate average = 0.010375
	minimum = 0 (at node 8)
	maximum = 0.018 (at node 5)
Accepted flit rate average= 0.01
	minimum = 0.006 (at node 3)
	maximum = 0.018 (at node 6)
Injected packet length average = 1
Accepted packet length average = 1
Total in-flight flits = 3 (0 measured)
latency change    = 1
throughput change = 1
Class 0:
Packet latency average = 19.6554
	minimum = 7
	maximum = 37
Network latency average = 19.6554
	minimum = 7
	maximum = 37
Slowest packet = 30637
Flit latency average = 19.6554
	minimum = 7
	maximum = 37
Slowest flit = 30637
Fragmentation average = 0
	minimum = 0
	maximum = 0
Injected packet rate average = 0.0094375
	minimum = 0.003 (at node 2)
	maximum = 0.015 (at node 10)
Accepted packet rate average = 0.00925
	minimum = 0.005 (at node 7)
	maximum = 0.013 (at node 0)
Injected flit rate average = 0.0094375
	minimum = 0.003 (at node 2)
	maximum = 0.015 (at node 10)
Accepted flit rate average= 0.00925
	minimum = 0.005 (at node 7)
	maximum = 0.013 (at node 0)
Injected packet length average = 1
Accepted packet length average = 1
Total in-flight flits = 3 (0 measured)
latency change    = 0.0397044
throughput change = 0.0810811
Class 0:
Packet latency average = 20.0746
	minimum = 7
	maximum = 33
Network latency average = 20.0746
	minimum = 7
	maximum = 33
Slowest packet = 30712
Flit latency average = 20.0746
	minimum = 7
	maximum = 33
Slowest flit = 30712
Fragmentation average = 0
	minimum = 0
	maximum = 0
Injected packet rate average = 0.0085
	minimum = 0 (at node 8)
	maximum = 0.016 (at node 0)
Accepted packet rate average = 0.008375
	minimum = 0.002 (at node 2)
	maximum = 0.016 (at node 3)
Injected flit rate average = 0.0085
	minimum = 0 (at node 8)
	maximum = 0.016 (at node 0)
Accepted flit rate average= 0.008375
	minimum = 0.002 (at node 2)
	maximum = 0.016 (at node 3)
Injected packet length average = 1
Accepted packet length average = 1
Total in-flight flits = 4 (0 measured)
latency change    = 0.0208832
throughput change = 0.104478
Warmed up ...Time used is 1500 cycles
Class 0:
Packet latency average = 20.2787
	minimum = 7
	maximum = 32
Network latency average = 20.2787
	minimum = 7
	maximum = 32
Slowest packet = 30773
Flit latency average = 20.3077
	minimum = 7
	maximum = 32
Slowest flit = 30753
Fragmentation average = 0
	minimum = 0
	maximum = 0
Injected packet rate average = 0.007875
	minimum = 0.002 (at node 3)
	maximum = 0.018 (at node 4)
Accepted packet rate average = 0.008125
	minimum = 0.002 (at node 0)
	maximum = 0.016 (at node 11)
Injected flit rate average = 0.007875
	minimum = 0.002 (at node 3)
	maximum = 0.018 (at node 4)
Accepted flit rate average= 0.008125
	minimum = 0.002 (at node 0)
	maximum = 0.016 (at node 11)
Injected packet length average = 1
Accepted packet length average = 1
Total in-flight flits = 2 (2 measured)
latency change    = 0.0100629
throughput change = 0.0307692
Class 0:
Packet latency average = 19.8214
	minimum = 7
	maximum = 32
Network latency average = 19.8214
	minimum = 7
	maximum = 32
Slowest packet = 30773
Flit latency average = 19.8472
	minimum = 7
	maximum = 32
Slowest flit = 30753
Fragmentation average = 0
	minimum = 0
	maximum = 0
Injected packet rate average = 0.0089375
	minimum = 0.004 (at node 3)
	maximum = 0.016 (at node 14)
Accepted packet rate average = 0.009
	minimum = 0.005 (at node 6)
	maximum = 0.013 (at node 13)
Injected flit rate average = 0.0089375
	minimum = 0.004 (at node 3)
	maximum = 0.016 (at node 14)
Accepted flit rate average= 0.009
	minimum = 0.005 (at node 6)
	maximum = 0.013 (at node 13)
Injected packet length average = 1
Accepted packet length average = 1
Total in-flight flits = 3 (3 measured)
latency change    = 0.023069
throughput change = 0.0972222
Class 0:
Packet latency average = 19.8102
	minimum = 7
	maximum = 37
Network latency average = 19.8102
	minimum = 7
	maximum = 37
Slowest packet = 30955
Flit latency average = 19.8273
	minimum = 7
	maximum = 37
Slowest flit = 30955
Fragmentation average = 0
	minimum = 0
	maximum = 0
Injected packet rate average = 0.00904167
	minimum = 0.00533333 (at node 3)
	maximum = 0.0153333 (at node 14)
Accepted packet rate average = 0.00916667
	minimum = 0.006 (at node 5)
	maximum = 0.0106667 (at node 4)
Injected flit rate average = 0.00904167
	minimum = 0.00533333 (at node 3)
	maximum = 0.0153333 (at node 14)
Accepted flit rate average= 0.00916667
	minimum = 0.006 (at node 5)
	maximum = 0.0106667 (at node 4)
Injected packet length average = 1
Accepted packet length average = 1
Total in-flight flits = 1 (1 measured)
latency change    = 0.000567556
throughput change = 0.0181818
Class 0:
Packet latency average = 19.6285
	minimum = 7
	maximum = 37
Network latency average = 19.6285
	minimum = 7
	maximum = 37
Slowest packet = 30955
Flit latency average = 19.6438
	minimum = 7
	maximum = 37
Slowest flit = 30955
Fragmentation average = 0
	minimum = 0
	maximum = 0
Injected packet rate average = 0.00909375
	minimum = 0.005 (at node 3)
	maximum = 0.013 (at node 2)
Accepted packet rate average = 0.009125
	minimum = 0.0065 (at node 5)
	maximum = 0.011 (at node 4)
Injected flit rate average = 0.00909375
	minimum = 0.005 (at node 3)
	maximum = 0.013 (at node 2)
Accepted flit rate average= 0.009125
	minimum = 0.0065 (at node 5)
	maximum = 0.011 (at node 4)
Injected packet length average = 1
Accepted packet length average = 1
Total in-flight flits = 3 (3 measured)
latency change    = 0.00925762
throughput change = 0.00456621
Class 0:
Packet latency average = 19.4192
	minimum = 7
	maximum = 37
Network latency average = 19.4192
	minimum = 7
	maximum = 37
Slowest packet = 30955
Flit latency average = 19.4336
	minimum = 7
	maximum = 37
Slowest flit = 30955
Fragmentation average = 0
	minimum = 0
	maximum = 0
Injected packet rate average = 0.0092
	minimum = 0.0052 (at node 3)
	maximum = 0.0132 (at node 2)
Accepted packet rate average = 0.009225
	minimum = 0.0076 (at node 5)
	maximum = 0.0112 (at node 6)
Injected flit rate average = 0.0092
	minimum = 0.0052 (at node 3)
	maximum = 0.0132 (at node 2)
Accepted flit rate average= 0.009225
	minimum = 0.0076 (at node 5)
	maximum = 0.0112 (at node 6)
Injected packet length average = 1
Accepted packet length average = 1
Total in-flight flits = 3 (3 measured)
latency change    = 0.0107777
throughput change = 0.0108401
Draining all recorded packets ...
Draining remaining packets ...
Time taken is 4050 cycles
Class 0:
Packet latency average = 20.9189
	minimum = 7
	maximum = 32
Network latency average = 20.9189
	minimum = 7
	maximum = 32
Slowest packet = 31136
Flit latency average = 20.9189
	minimum = 7
	maximum = 32
Slowest flit = 31136
Fragmentation average = 0
	minimum = 0
	maximum = 0
Injected packet rate average = 0.009625
	minimum = 0.004 (at node 0)
	maximum = 0.02 (at node 8)
Accepted packet rate average = 0.00925
	minimum = 0 (at node 12)
	maximum = 0.022 (at node 1)
Injected flit rate average = 0.009625
	minimum = 0.004 (at node 0)
	maximum = 0.02 (at node 8)
Accepted flit rate average= 0.00925
	minimum = 0 (at node 12)
	maximum = 0.022 (at node 1)
Injected packet length average = 1
Accepted packet length average = 1
Total in-flight flits = 3 (0 measured)
latency change    = 1
throughput change = 1
Class 0:
Packet latency average = 20.087
	minimum = 7
	maximum = 41
Network latency average = 20.087
	minimum = 7
	maximum = 41
Slowest packet = 31268
Flit latency average = 20.087
	minimum = 7
	maximum = 41
Slowest flit = 31268
Fragmentation average = 0
	minimum = 0
	maximum = 0
Injected packet rate average = 0.01025
	minimum = 0.006 (at node 5)
	maximum = 0.015 (at node 6)
Accepted packet rate average = 0.0100625
	minimum = 0.002 (at node 3)
	maximum = 0.018 (at node 1)
Injected flit rate average = 0.01025
	minimum = 0.006 (at node 5)
	maximum = 0.015 (at node 6)
Accepted flit rate average= 0.0100625
	minimum = 0.002 (at node 3)
	maximum = 0.018 (at node 1)
Injected packet length average = 1
Accepted packet length average = 1
Total in-flight flits = 3 (0 measured)
latency change    = 0.041418
throughput change = 0.0807453
Class 0:
Packet latency average = 20.2065
	minimum = 7
	maximum = 37
Network latency average = 20.2065
	minimum = 7
	maximum = 37
Slowest packet = 31312
Flit latency average = 20.2065
	minimum = 7
	maximum = 37
Slowest flit = 31312
Fragmentation average = 0
	minimum = 0
	maximum = 0
Injected packet rate average = 0.011625
	minimum = 0.004 (at node 2)
	maximum = 0.022 (at node 10)
Accepted packet rate average = 0.0115
	minimum = 0.006 (at node 10)
	maximum = 0.018 (at node 7)
Injected flit rate average = 0.011625
	minimum = 0.004 (at node 2)
	maximum = 0.022 (at node 10)
Accepted flit rate average= 0.0115
	minimum = 0.006 (at node 10)
	maximum = 0.018 (at node 7)
Injected packet length average = 1
Accepted packet length average = 1
Total in-flight flits = 4 (0 measured)
latency change    = 0.00591716
throughput change = 0.125
Warmed up ...Time used is 1500 cycles
Class 0:
Packet latency average = 19.791
	minimum = 7
	maximum = 32
Network latency average = 19.791
	minimum = 7
	maximum = 32
Slowest packet = 31396
Flit latency average = 19.5634
	minimum = 7
	maximum = 32
Slowest flit = 31396
Fragmentation average = 0
	minimum = 0
	maximum = 0
Injected packet rate average = 0.008375
	minimum = 0.002 (at node 14)
	maximum = 0.016 (at node 3)
Accepted packet rate average = 0.008875
	minimum = 0.002 (at node 0)
	maximum = 0.018 (at node 12)
Injected flit rate average = 0.008375
	minimum = 0.002 (at node 14)
	maximum = 0.016 (at node 3)
Accepted flit rate average= 0.008875
	minimum = 0.002 (at node 0)
	maximum = 0.018 (at node 12)
Injected packet length average = 1
Accepted packet length average = 1
Total in-flight flits = 0 (0 measured)
latency change    = 0.0209932
throughput change = 0.295775
Class 0:
Packet latency average = 19.6776
	minimum = 7
	maximum = 37
Network latency average = 19.6776
	minimum = 7
	maximum = 37
Slowest packet = 31455
Flit latency average = 19.5769
	minimum = 7
	maximum = 37
Slowest flit = 31455
Fragmentation average = 0
	minimum = 0
	maximum = 0
Injected packet rate average = 0.009625
	minimum = 0.004 (at node 12)
	maximum = 0.023 (at node 3)
Accepted packet rate average = 0.00975
	minimum = 0.004 (at node 6)
	maximum = 0.015 (at node 4)
Injected flit rate average = 0.009625
	minimum = 0.004 (at node 12)
	maximum = 0.023 (at node 3)
Accepted flit rate average= 0.00975
	minimum = 0.004 (at node 6)
	maximum = 0.015 (at node 4)
Injected packet length average = 1
Accepted packet length average = 1
Total in-flight flits = 2 (2 measured)
latency change    = 0.00576356
throughput change = 0.0897436
Class 0:
Packet latency average = 19.6017
	minimum = 7
	maximum = 37
Network latency average = 19.6017
	minimum = 7
	maximum = 37
Slowest packet = 31455
Flit latency average = 19.5362
	minimum = 7
	maximum = 37
Slowest flit = 31455
Fragmentation average = 0
	minimum = 0
	maximum = 0
Injected packet rate average = 0.00991667
	minimum = 0.006 (at node 9)
	maximum = 0.0186667 (at node 3)
Accepted packet rate average = 0.00979167
	minimum = 0.00466667 (at node 6)
	maximum = 0.0146667 (at node 1)
Injected flit rate average = 0.00991667
	minimum = 0.006 (at node 9)
	maximum = 0.0186667 (at node 3)
Accepted flit rate average= 0.00979167
	minimum = 0.00466667 (at node 6)
	maximum = 0.0146667 (at node 1)
Injected packet length average = 1
Accepted packet length average = 1
Total in-flight flits = 7 (7 measured)
latency change    = 0.00387211
throughput change = 0.00425532
Class 0:
Packet latency average = 19.4137
	minimum = 7
	maximum = 37
Network latency average = 19.4137
	minimum = 7
	maximum = 37
Slowest packet = 31455
Flit latency average = 19.3666
	minimum = 7
	maximum = 37
Slowest flit = 31455
Fragmentation average = 0
	minimum = 0
	maximum = 0
Injected packet rate average = 0.009625
	minimum = 0.0055 (at node 12)
	maximum = 0.0175 (at node 3)
Accepted packet rate average = 0.00971875
	minimum = 0.0045 (at node 6)
	maximum = 0.014 (at node 1)
Injected flit rate average = 0.009625
	minimum = 0.0055 (at node 12)
	maximum = 0.0175 (at node 3)
Accepted flit rate average= 0.00971875
	minimum = 0.0045 (at node 6)
	maximum = 0.014 (at node 1)
Injected packet length average = 1
Accepted packet length average = 1
Total in-flight flits = 1 (1 measured)
latency change    = 0.00968651
throughput change = 0.00750268
Class 0:
Packet latency average = 19.7065
	minimum = 7
	maximum = 37
Network latency average = 19.7065
	minimum = 7
	maximum = 37
Slowest packet = 31455
Flit latency average = 19.6658
	minimum = 7
	maximum = 37
Slowest flit = 31455
Fragmentation average = 0
	minimum = 0
	maximum = 0
Injected packet rate average = 0.009675
	minimum = 0.0064 (at node 12)
	maximum = 0.0156 (at node 3)
Accepted packet rate average = 0.009725
	minimum = 0.0052 (at node 6)
	maximum = 0.014 (at node 13)
Injected flit rate average = 0.009675
	minimum = 0.0064 (at node 12)
	maximum = 0.0156 (at node 3)
Accepted flit rate average= 0.009725
	minimum = 0.0052 (at node 6)
	maximum = 0.014 (at node 13)
Injected packet length average = 1
Accepted packet length average = 1
Total in-flight flits = 2 (2 measured)
latency change    = 0.0148587
throughput change = 0.000642674
Draining all recorded packets ...
Draining remaining packets ...
Time taken is 4027 cycles
Class 0:
Packet latency average = 18.8382
	minimum = 7
	maximum = 32
Network latency average = 18.8382
	minimum = 7
	maximum = 32
Slowest packet = 31809
Flit latency average = 18.8382
	minimum = 7
	maximum = 32
Slowest flit = 31809
Fragmentation average = 0
	minimum = 0
	maximum = 0
Injected packet rate average = 0.00875
	minimum = 0.002 (at node 7)
	maximum = 0.016 (at node 5)
Accepted packet rate average = 0.0085
	minimum = 0.002 (at node 13)
	maximum = 0.018 (at node 0)
Injected flit rate average = 0.00875
	minimum = 0.002 (at node 7)
	maximum = 0.016 (at node 5)
Accepted flit rate average= 0.0085
	minimum = 0.002 (at node 13)
	maximum = 0.018 (at node 0)
Injected packet length average = 1
Accepted packet length average = 1
Total in-flight flits = 2 (0 measured)
latency change    = 1
throughput change = 1
Class 0:
Packet latency average = 19.7194
	minimum = 7
	maximum = 37
Network latency average = 19.7194
	minimum = 7
	maximum = 37
Slowest packet = 31861
Flit latency average = 19.7194
	minimum = 7
	maximum = 37
Slowest flit = 31861
Fragmentation average = 0
	minimum = 0
	maximum = 0
Injected packet rate average = 0.00875
	minimum = 0.002 (at node 1)
	maximum = 0.014 (at node 5)
Accepted packet rate average = 0.0086875
	minimum = 0.003 (at node 6)
	maximum = 0.013 (at node 0)
Injected flit rate average = 0.00875
	minimum = 0.002 (at node 1)
	maximum = 0.014 (at node 5)
Accepted flit rate average= 0.0086875
	minimum = 0.003 (at node 6)
	maximum = 0.013 (at node 0)
Injected packet length average = 1
Accepted packet length average = 1
Total in-flight flits = 1 (0 measured)
latency change    = 0.0446864
throughput change = 0.0215827
Class 0:
Packet latency average = 20.5556
	minimum = 7
	maximum = 37
Network latency average = 20.5556
	minimum = 7
	maximum = 37
Slowest packet = 31914
Flit latency average = 20.5556
	minimum = 7
	maximum = 37
Slowest flit = 31914
Fragmentation average = 0
	minimum = 0
	maximum = 0
Injected packet rate average = 0.009125
	minimum = 0.002 (at node 0)
	maximum = 0.018 (at node 10)
Accepted packet rate average = 0.009
	minimum = 0.002 (at node 0)
	maximum = 0.02 (at node 5)
Injected flit rate average = 0.009125
	minimum = 0.002 (at node 0)
	maximum = 0.018 (at node 10)
Accepted flit rate average= 0.009
	minimum = 0.002 (at node 0)
	maximum = 0.02 (at node 5)
Injected packet length average = 1
Accepted packet length average = 1
Total in-flight flits = 2 (0 measured)
latency change    = 0.0406766
throughput change = 0.0347222
Warmed up ...Time used is 1500 cycles
Class 0:
Packet latency average = 19.6575
	minimum = 7
	maximum = 36
Network latency average = 19.6575
	minimum = 7
	maximum = 36
Slowest packet = 32051
Flit latency average = 19.5867
	minimum = 7
	maximum = 36
Slowest flit = 32051
Fragmentation average = 0
	minimum = 0
	maximum = 0
Injected packet rate average = 0.009375
	minimum = 0.002 (at node 11)
	maximum = 0.014 (at node 0)
Accepted packet rate average = 0.009375
	minimum = 0.002 (at node 8)
	maximum = 0.016 (at node 5)
Injected flit rate average = 0.009375
	minimum = 0.002 (at node 11)
	maximum = 0.014 (at node 0)
Accepted flit rate average= 0.009375
	minimum = 0.002 (at node 8)
	maximum = 0.016 (at node 5)
Injected packet length average = 1
Accepted packet length average = 1
Total in-flight flits = 2 (2 measured)
latency change    = 0.0456833
throughput change = 0.04
Class 0:
Packet latency average = 19.3576
	minimum = 7
	maximum = 38
Network latency average = 19.3576
	minimum = 7
	maximum = 38
Slowest packet = 32091
Flit latency average = 19.3268
	minimum = 7
	maximum = 38
Slowest flit = 32091
Fragmentation average = 0
	minimum = 0
	maximum = 0
Injected packet rate average = 0.009625
	minimum = 0.005 (at node 13)
	maximum = 0.013 (at node 10)
Accepted packet rate average = 0.0095625
	minimum = 0.004 (at node 0)
	maximum = 0.016 (at node 11)
Injected flit rate average = 0.009625
	minimum = 0.005 (at node 13)
	maximum = 0.013 (at node 10)
Accepted flit rate average= 0.0095625
	minimum = 0.004 (at node 0)
	maximum = 0.016 (at node 11)
Injected packet length average = 1
Accepted packet length average = 1
Total in-flight flits = 3 (3 measured)
latency change    = 0.0154936
throughput change = 0.0196078
Class 0:
Packet latency average = 19.0804
	minimum = 7
	maximum = 38
Network latency average = 19.0804
	minimum = 7
	maximum = 38
Slowest packet = 32091
Flit latency average = 19.0619
	minimum = 7
	maximum = 38
Slowest flit = 32091
Fragmentation average = 0
	minimum = 0
	maximum = 0
Injected packet rate average = 0.00954167
	minimum = 0.00666667 (at node 11)
	maximum = 0.0126667 (at node 10)
Accepted packet rate average = 0.00941667
	minimum = 0.004 (at node 8)
	maximum = 0.0146667 (at node 11)
Injected flit rate average = 0.00954167
	minimum = 0.00666667 (at node 11)
	maximum = 0.0126667 (at node 10)
Accepted flit rate average= 0.00941667
	minimum = 0.004 (at node 8)
	maximum = 0.0146667 (at node 11)
Injected packet length average = 1
Accepted packet length average = 1
Total in-flight flits = 5 (5 measured)
latency change    = 0.0145311
throughput change = 0.0154867
Draining all recorded packets ...
Draining remaining packets ...
Time taken is 3047 cycles
====== Overall Traffic Statistics ======
====== Traffic class 0 ======
Packet latency average = 19.6315 (50 samples)
	minimum = 7 (50 samples)
	maximum = 38.5 (50 samples)
Network latency average = 19.6315 (50 samples)
	minimum = 7 (50 samples)
	maximum = 38.5 (50 samples)
Flit latency average = 19.6539 (50 samples)
	minimum = 7 (50 samples)
	maximum = 38.5 (50 samples)
Fragmentation average = 0 (50 samples)
	minimum = 0 (50 samples)
	maximum = 0 (50 samples)
Injected packet rate average = 0.00993793 (50 samples)
	minimum = 0.0067321 (50 samples)
	maximum = 0.0137475 (50 samples)
Accepted packet rate average = 0.00993462 (50 samples)
	minimum = 0.00648752 (50 samples)
	maximum = 0.0137049 (50 samples)
Injected flit rate average = 0.00993793 (50 samples)
	minimum = 0.0067321 (50 samples)
	maximum = 0.0137475 (50 samples)
Accepted flit rate average = 0.00993462 (50 samples)
	minimum = 0.00648752 (50 samples)
	maximum = 0.0137049 (50 samples)
Injected packet size average = 1 (50 samples)
Accepted packet size average = 1 (50 samples)
Hops average = 3.51487 (50 samples)
Total run time 4.77742
