BEGIN Configuration File: /tmp/tmpxj3hd0nw.cfg
topology = mesh;
k = 4;
n = 2;
routing_function = dor;
num_vcs = 4;
vc_buf_size = 4;
wait_for_tail_credit = 1;
vc_allocator = islip;
sw_allocator = islip;
alloc_iters = 1;
credit_delay = 2;
routing_delay = 1;
vc_alloc_delay = 1;
sw_alloc_delay = 1;
input_speedup = 2;
output_speedup = 1;
internal_speedup = 1.0;
traffic = hotspot;
packet_size = 1;
sim_type = latency;
injection_rate = 0.01;
warmup_periods = 3;
sample_period = 500;
sim_count = 50;
seed = 1;
link_failures = 4;
fail_seed = 303;

END Configuration File: /tmp/tmpxj3hd0nw.cfg
failure at node 9, channel 2 (1/4)
failure at node 15, channel 3 (2/4)
failure at node 2, channel 2 (3/4)
failure at node 7, channel 3 (4/4)
Class 0:
Packet latency average = 21.5765
	minimum = 7
	maximum = 38
Network latency average = 21.5765
	minimum = 7
	maximum = 38
Slowest packet = 19
Flit latency average = 21.5765
	minimum = 7
	maximum = 38
Slowest flit = 19
Fragmentation average = 0
	minimum = 0
	maximum = 0
Injected packet rate average = 0.011125
	minimum = 0.006 (at node 1)
	maximum = 0.022 (at node 7)
Accepted packet rate average = 0.010625
	minimum = 0 (at node 0)
	maximum = 0.17 (at node 3)
Injected flit rate average = 0.011125
	minimum = 0.006 (at node 1)
	maximum = 0.022 (at node 7)
Accepted flit rate average= 0.010625
	minimum = 0 (at node 0)
	maximum = 0.17 (at node 3)
Injected packet length average = 1
Accepted packet length average = 1
Total in-flight flits = 4 (0 measured)
latency change    = 1
throughput change = 1
Class 0:
Packet latency average = 21.5089
	minimum = 7
	maximum = 39
Network latency average = 21.5089
	minimum = 7
	maximum = 39
Slowest packet = 129
Flit latency average = 21.5089
	minimum = 7
	maximum = 39
Slowest flit = 129
Fragmentation average = 0
	minimum = 0
	maximum = 0
Injected packet rate average = 0.0108125
	minimum = 0.006 (at node 2)
	maximum = 0.019 (at node 7)
Accepted packet rate average = 0.0105625
	minimum = 0 (at node 0)
	maximum = 0.169 (at node 3)
Injected flit rate average = 0.0108125
	minimum = 0.006 (at node 2)
	maximum = 0.019 (at node 7)
Accepted flit rate average= 0.0105625
	minimum = 0 (at node 0)
	maximum = 0.169 (at node 3)
Injected packet length average = 1
Accepted packet length average = 1
Total in-flight flits = 4 (0 measured)
latency change    = 0.00314265
throughput change = 0.00591716
Class 0:
Packet latency average = 24.5915
	minimum = 7
	maximum = 38
Network latency average = 24.5915
	minimum = 7
	maximum = 38
Slowest packet = 172
Flit latency average = 24.5915
	minimum = 7
	maximum = 38
Slowest flit = 172
Fragmentation average = 0
	minimum = 0
	maximum = 0
Injected packet rate average = 0.009
	minimum = 0.002 (at node 6)
	maximum = 0.026 (at node 12)
Accepted packet rate average = 0.008875
	minimum = 0 (at node 0)
	maximum = 0.142 (at node 3)
Injected flit rate average = 0.009
	minimum = 0.002 (at node 6)
	maximum = 0.026 (at node 12)
Accepted flit rate average= 0.008875
	minimum = 0 (at node 0)
	maximum = 0.142 (at node 3)
Injected packet length average = 1
Accepted packet length average = 1
Total in-flight flits = 5 (0 measured)
latency change    = 0.125355
throughput change = 0.190141
Warmed up ...Time used is 1500 cycles
Class 0:
Packet latency average = 22.7476
	minimum = 7
	maximum = 44
Network latency average = 22.7476
	minimum = 7
	maximum = 44
Slowest packet = 325
Flit latency average = 22.9444
	minimum = 7
	maximum = 44
Slowest flit = 325
Fragmentation average = 0
	minimum = 0
	maximum = 0
Injected packet rate average = 0.0135
	minimum = 0.006 (at node 2)
	maximum = 0.026 (at node 8)
Accepted packet rate average = 0.0135
	minimum = 0 (at node 0)
	maximum = 0.216 (at node 3)
Injected flit rate average = 0.0135
	minimum = 0.006 (at node 2)
	maximum = 0.026 (at node 8)
Accepted flit rate average= 0.0135
	minimum = 0 (at node 0)
	maximum = 0.216 (at node 3)
Injected packet length average = 1
Accepted packet length average = 1
Total in-flight flits = 5 (5 measured)
latency change    = 0.0810626
throughput change = 0.342593
Class 0:
Packet latency average = 22.8995
	minimum = 7
	maximum = 44
Network latency average = 22.8995
	minimum = 7
	maximum = 44
Slowest packet = 325
Flit latency average = 23.0052
	minimum = 7
	maximum = 44
Slowest flit = 325
Fragmentation average = 0
	minimum = 0
	maximum = 0
Injected packet rate average = 0.0119375
	minimum = 0.007 (at node 0)
	maximum = 0.019 (at node 8)
Accepted packet rate average = 0.012125
	minimum = 0 (at node 0)
	maximum = 0.194 (at node 3)
Injected flit rate average = 0.0119375
	minimum = 0.007 (at node 0)
	maximum = 0.019 (at node 8)
Accepted flit rate average= 0.012125
	minimum = 0 (at node 0)
	maximum = 0.194 (at node 3)
Injected packet length average = 1
Accepted packet length average = 1
Total in-flight flits = 2 (2 measured)
latency change    = 0.00663326
throughput change = 0.113402
Class 0:
Packet latency average = 23.0038
	minimum = 7
	maximum = 44
Network latency average = 23.0038
	minimum = 7
	maximum = 44
Slowest packet = 325
Flit latency average = 23.0775
	minimum = 7
	maximum = 44
Slowest flit = 325
Fragmentation average = 0
	minimum = 0
	maximum = 0
Injected packet rate average = 0.0112083
	minimum = 0.006 (at node 0)
	maximum = 0.0153333 (at node 8)
Accepted packet rate average = 0.0112917
	minimum = 0 (at node 0)
	maximum = 0.180667 (at node 3)
Injected flit rate average = 0.0112083
	minimum = 0.006 (at node 0)
	maximum = 0.0153333 (at node 8)
Accepted flit rate average= 0.0112917
	minimum = 0 (at node 0)
	maximum = 0.180667 (at node 3)
Injected packet length average = 1
Accepted packet length average = 1
Total in-flight flits = 3 (3 measured)
latency change    = 0.00453354
throughput change = 0.0738007
Class 0:
Packet latency average = 22.497
	minimum = 7
	maximum = 44
Network latency average = 22.497
	minimum = 7
	maximum = 44
Slowest packet = 325
Flit latency average = 22.5627
	minimum = 7
	maximum = 44
Slowest flit = 325
Fragmentation average = 0
	minimum = 0
	maximum = 0
Injected packet rate average = 0.0106875
	minimum = 0.0055 (at node 0)
	maximum = 0.0135 (at node 8)
Accepted packet rate average = 0.0107188
	minimum = 0 (at node 0)
	maximum = 0.1715 (at node 3)
Injected flit rate average = 0.0106875
	minimum = 0.0055 (at node 0)
	maximum = 0.0135 (at node 8)
Accepted flit rate average= 0.0107188
	minimum = 0 (at node 0)
	maximum = 0.1715 (at node 3)
Injected packet length average = 1
Accepted packet length average = 1
Total in-flight flits = 4 (4 measured)
latency change    = 0.0225238
throughput change = 0.05345
Class 0:
Packet latency average = 22.5646
	minimum = 7
	maximum = 44
Network latency average = 22.5646
	minimum = 7
	maximum = 44
Slowest packet = 325
Flit latency average = 22.617
	minimum = 7
	maximum = 44
Slowest flit = 325
Fragmentation average = 0
	minimum = 0
	maximum = 0
Injected packet rate average = 0.010475
	minimum = 0.006 (at node 0)
	maximum = 0.0132 (at node 6)
Accepted packet rate average = 0.010575
	minimum = 0 (at node 0)
	maximum = 0.1692 (at node 3)
Injected flit rate average = 0.010475
	minimum = 0.006 (at node 0)
	maximum = 0.0132 (at node 6)
Accepted flit rate average= 0.010575
	minimum = 0 (at node 0)
	maximum = 0.1692 (at node 3)
Injected packet length average = 1
Accepted packet length average = 1
Total in-flight flits = 1 (1 measured)
latency change    = 0.00299371
throughput change = 0.0135934
Class 0:
Packet latency average = 22.4491
	minimum = 7
	maximum = 44
Network latency average = 22.4491
	minimum = 7
	maximum = 44
Slowest packet = 325
Flit latency average = 22.4941
	minimum = 7
	maximum = 44
Slowest flit = 325
Fragmentation average = 0
	minimum = 0
	maximum = 0
Injected packet rate average = 0.0105208
	minimum = 0.00733333 (at node 0)
	maximum = 0.0133333 (at node 14)
Accepted packet rate average = 0.0105417
	minimum = 0 (at node 0)
	maximum = 0.168667 (at node 3)
Injected flit rate average = 0.0105208
	minimum = 0.00733333 (at node 0)
	maximum = 0.0133333 (at node 14)
Accepted flit rate average= 0.0105417
	minimum = 0 (at node 0)
	maximum = 0.168667 (at node 3)
Injected packet length average = 1
Accepted packet length average = 1
Total in-flight flits = 4 (4 measured)
latency change    = 0.00514459
throughput change = 0.00316206
Class 0:
Packet latency average = 22.3688
	minimum = 7
	maximum = 44
Network latency average = 22.3688
	minimum = 7
	maximum = 44
Slowest packet = 325
Flit latency average = 22.4082
	minimum = 7
	maximum = 44
Slowest flit = 325
Fragmentation average = 0
	minimum = 0
	maximum = 0
Injected packet rate average = 0.0105
	minimum = 0.00742857 (at node 10)
	maximum = 0.0131429 (at node 1)
Accepted packet rate average = 0.0105
	minimum = 0 (at node 0)
	maximum = 0.168 (at node 3)
Injected flit rate average = 0.0105
	minimum = 0.00742857 (at node 10)
	maximum = 0.0131429 (at node 1)
Accepted flit rate average= 0.0105
	minimum = 0 (at node 0)
	maximum = 0.168 (at node 3)
Injected packet length average = 1
Accepted packet length average = 1
Total in-flight flits = 5 (5 measured)
latency change    = 0.0035907
throughput change = 0.00396825
Draining all recorded packets ...
Draining remaining packets ...
Time taken is 5048 cycles
Class 0:
Packet latency average = 22
	minimum = 7
	maximum = 37
Network latency average = 22
	minimum = 7
	maximum = 37
Slowest packet = 846
Flit latency average = 22
	minimum = 7
	maximum = 37
Slowest flit = 846
Fragmentation average = 0
	minimum = 0
	maximum = 0
Injected packet rate average = 0.00925
	minimum = 0.002 (at node 1)
	maximum = 0.018 (at node 10)
Accepted packet rate average = 0.00875
	minimum = 0 (at node 0)
	maximum = 0.14 (at node 3)
Injected flit rate average = 0.00925
	minimum = 0.002 (at node 1)
	maximum = 0.018 (at node 10)
Accepted flit rate average= 0.00875
	minimum = 0 (at node 0)
	maximum = 0.14 (at node 3)
Injected packet length average = 1
Accepted packet length average = 1
Total in-flight flits = 4 (0 measured)
latency change    = 1
throughput change = 1
Class 0:
Packet latency average = 21.7111
	minimum = 7
	maximum = 38
Network latency average = 21.7111
	minimum = 7
	maximum = 38
Slowest packet = 949
Flit latency average = 21.7111
	minimum = 7
	maximum = 38
Slowest flit = 949
Fragmentation average = 0
	minimum = 0
	maximum = 0
Injected packet rate average = 0.0088125
	minimum = 0.004 (at node 1)
	maximum = 0.015 (at node 2)
Accepted packet rate average = 0.0084375
	minimum = 0 (at node 0)
	maximum = 0.135 (at node 3)
Injected flit rate average = 0.0088125
	minimum = 0.004 (at node 1)
	maximum = 0.015 (at node 2)
Accepted flit rate average= 0.0084375
	minimum = 0 (at node 0)
	maximum = 0.135 (at node 3)
Injected packet length average = 1
Accepted packet length average = 1
Total in-flight flits = 6 (0 measured)
latency change    = 0.013306
throughput change = 0.037037
Class 0:
Packet latency average = 22.0533
	minimum = 7
	maximum = 38
Network latency average = 22.0533
	minimum = 7
	maximum = 38
Slowest packet = 1000
Flit latency average = 22.0533
	minimum = 7
	maximum = 38
Slowest flit = 1000
Fragmentation average = 0
	minimum = 0
	maximum = 0
Injected packet rate average = 0.00925
	minimum = 0.004 (at node 1)
	maximum = 0.014 (at node 9)
Accepted packet rate average = 0.009375
	minimum = 0 (at node 0)
	maximum = 0.15 (at node 3)
Injected flit rate average = 0.00925
	minimum = 0.004 (at node 1)
	maximum = 0.014 (at node 9)
Accepted flit rate average= 0.009375
	minimum = 0 (at node 0)
	maximum = 0.15 (at node 3)
Injected packet length average = 1
Accepted packet length average = 1
Total in-flight flits = 5 (0 measured)
latency change    = 0.0155179
throughput change = 0.1
Warmed up ...Time used is 1500 cycles
Class 0:
Packet latency average = 21.5571
	minimum = 7
	maximum = 37
Network latency average = 21.5571
	minimum = 7
	maximum = 37
Slowest packet = 1052
Flit latency average = 21.8133
	minimum = 7
	maximum = 37
Slowest flit = 1052
Fragmentation average = 0
	minimum = 0
	maximum = 0
Injected packet rate average = 0.009
	minimum = 0.002 (at node 0)
	maximum = 0.02 (at node 6)
Accepted packet rate average = 0.009375
	minimum = 0 (at node 0)
	maximum = 0.15 (at node 3)
Injected flit rate average = 0.009
	minimum = 0.002 (at node 0)
	maximum = 0.02 (at node 6)
Accepted flit rate average= 0.009375
	minimum = 0 (at node 0)
	maximum = 0.15 (at node 3)
Injected packet length average = 1
Accepted packet length average = 1
Total in-flight flits = 2 (2 measured)
latency change    = 0.0230175
throughput change = 0
Class 0:
Packet latency average = 21.2857
	minimum = 7
	maximum = 37
Network latency average = 21.2857
	minimum = 7
	maximum = 37
Slowest packet = 1052
Flit latency average = 21.4211
	minimum = 7
	maximum = 37
Slowest flit = 1052
Fragmentation average = 0
	minimum = 0
	maximum = 0
Injected packet rate average = 0.009375
	minimum = 0.004 (at node 1)
	maximum = 0.016 (at node 4)
Accepted packet rate average = 0.0095
	minimum = 0 (at node 0)
	maximum = 0.152 (at node 3)
Injected flit rate average = 0.009375
	minimum = 0.004 (at node 1)
	maximum = 0.016 (at node 4)
Accepted flit rate average= 0.0095
	minimum = 0 (at node 0)
	maximum = 0.152 (at node 3)
Injected packet length average = 1
Accepted packet length average = 1
Total in-flight flits = 3 (3 measured)
latency change    = 0.0127517
throughput change = 0.0131579
Class 0:
Packet latency average = 22.3235
	minimum = 7
	maximum = 37
Network latency average = 22.3235
	minimum = 7
	maximum = 37
Slowest packet = 1052
Flit latency average = 22.3868
	minimum = 7
	maximum = 37
Slowest flit = 1052
Fragmentation average = 0
	minimum = 0
	maximum = 0
Injected packet rate average = 0.0100833
	minimum = 0.006 (at node 1)
	maximum = 0.0146667 (at node 4)
Accepted packet rate average = 0.010125
	minimum = 0 (at node 0)
	maximum = 0.162 (at node 3)
Injected flit rate average = 0.0100833
	minimum = 0.006 (at node 1)
	maximum = 0.0146667 (at node 4)
Accepted flit rate average= 0.010125
	minimum = 0 (at node 0)
	maximum = 0.162 (at node 3)
Injected packet length average = 1
Accepted packet length average = 1
Total in-flight flits = 4 (4 measured)
latency change    = 0.0464897
throughput change = 0.0617284
Class 0:
Packet latency average = 22.1101
	minimum = 7
	maximum = 37
Network latency average = 22.1101
	minimum = 7
	maximum = 37
Slowest packet = 1052
Flit latency average = 22.1596
	minimum = 7
	maximum = 37
Slowest flit = 1052
Fragmentation average = 0
	minimum = 0
	maximum = 0
Injected packet rate average = 0.0102813
	minimum = 0.007 (at node 1)
	maximum = 0.0145 (at node 4)
Accepted packet rate average = 0.010375
	minimum = 0 (at node 0)
	maximum = 0.166 (at node 3)
Injected flit rate average = 0.0102813
	minimum = 0.007 (at node 1)
	maximum = 0.0145 (at node 4)
Accepted flit rate average= 0.010375
	minimum = 0 (at node 0)
	maximum = 0.166 (at node 3)
Injected packet length average = 1
Accepted packet length average = 1
Total in-flight flits = 2 (2 measured)
latency change    = 0.0096534
throughput change = 0.0240964
Class 0:
Packet latency average = 22.0896
	minimum = 7
	maximum = 37
Network latency average = 22.0896
	minimum = 7
	maximum = 37
Slowest packet = 1052
Flit latency average = 22.1302
	minimum = 7
	maximum = 37
Slowest flit = 1052
Fragmentation average = 0
	minimum = 0
	maximum = 0
Injected packet rate average = 0.01015
	minimum = 0.0068 (at node 1)
	maximum = 0.0132 (at node 4)
Accepted packet rate average = 0.010175
	minimum = 0 (at node 0)
	maximum = 0.1628 (at node 3)
Injected flit rate average = 0.01015
	minimum = 0.0068 (at node 1)
	maximum = 0.0132 (at node 4)
Accepted flit rate average= 0.010175
	minimum = 0 (at node 0)
	maximum = 0.1628 (at node 3)
Injected packet length average = 1
Accepted packet length average = 1
Total in-flight flits = 4 (4 measured)
latency change    = 0.000929829
throughput change = 0.019656
Class 0:
Packet latency average = 22.2046
	minimum = 7
	maximum = 37
Network latency average = 22.2046
	minimum = 7
	maximum = 37
Slowest packet = 1052
Flit latency average = 22.238
	minimum = 7
	maximum = 37
Slowest flit = 1052
Fragmentation average = 0
	minimum = 0
	maximum = 0
Injected packet rate average = 0.00989583
	minimum = 0.00733333 (at node 8)
	maximum = 0.012 (at node 4)
Accepted packet rate average = 0.00997917
	minimum = 0 (at node 0)
	maximum = 0.159667 (at node 3)
Injected flit rate average = 0.00989583
	minimum = 0.00733333 (at node 8)
	maximum = 0.012 (at node 4)
Accepted flit rate average= 0.00997917
	minimum = 0 (at node 0)
	maximum = 0.159667 (at node 3)
Injected packet length average = 1
Accepted packet length average = 1
Total in-flight flits = 1 (1 measured)
latency change    = 0.00518311
throughput change = 0.0196242
Draining all recorded packets ...
Draining remaining packets ...
Time taken is 4528 cycles
Class 0:
Packet latency average = 21.25
	minimum = 7
	maximum = 39
Network latency average = 21.25
	minimum = 7
	maximum = 39
Slowest packet = 1588
Flit latency average = 21.25
	minimum = 7
	maximum = 39
Slowest flit = 1588
Fragmentation average = 0
	minimum = 0
	maximum = 0
Injected packet rate average = 0.0115
	minimum = 0.006 (at node 0)
	maximum = 0.022 (at node 6)
Accepted packet rate average = 0.011
	minimum = 0 (at node 0)
	maximum = 0.176 (at node 3)
Injected flit rate average = 0.0115
	minimum = 0.006 (at node 0)
	maximum = 0.022 (at node 6)
Accepted flit rate average= 0.011
	minimum = 0 (at node 0)
	maximum = 0.176 (at node 3)
Injected packet length average = 1
Accepted packet length average = 1
Total in-flight flits = 4 (0 measured)
latency change    = 1
throughput change = 1
Class 0:
Packet latency average = 21.0174
	minimum = 7
	maximum = 39
Network latency average = 21.0174
	minimum = 7
	maximum = 39
Slowest packet = 1588
Flit latency average = 21.0174
	minimum = 7
	maximum = 39
Slowest flit = 1588
Fragmentation average = 0
	minimum = 0
	maximum = 0
Injected packet rate average = 0.011
	minimum = 0.006 (at node 8)
	maximum = 0.02 (at node 6)
Accepted packet rate average = 0.01075
	minimum = 0 (at node 0)
	maximum = 0.172 (at node 3)
Injected flit rate average = 0.011
	minimum = 0.006 (at node 8)
	maximum = 0.02 (at node 6)
Accepted flit rate average= 0.01075
	minimum = 0 (at node 0)
	maximum = 0.172 (at node 3)
Injected packet length average = 1
Accepted packet length average = 1
Total in-flight flits = 4 (0 measured)
latency change    = 0.011065
throughput change = 0.0232558
Class 0:
Packet latency average = 22.5417
	minimum = 7
	maximum = 37
Network latency average = 22.5417
	minimum = 7
	maximum = 37
Slowest packet = 1726
Flit latency average = 22.5417
	minimum = 7
	maximum = 37
Slowest flit = 1726
Fragmentation average = 0
	minimum = 0
	maximum = 0
Injected packet rate average = 0.008625
	minimum = 0.002 (at node 0)
	maximum = 0.014 (at node 1)
Accepted packet rate average = 0.009
	minimum = 0 (at node 0)
	maximum = 0.144 (at node 3)
Injected flit rate average = 0.008625
	minimum = 0.002 (at node 0)
	maximum = 0.014 (at node 1)
Accepted flit rate average= 0.009
	minimum = 0 (at node 0)
	maximum = 0.144 (at node 3)
Injected packet length average = 1
Accepted packet length average = 1
Total in-flight flits = 1 (0 measured)
latency change    = 0.0676181
throughput change = 0.194444
Warmed up ...Time used is 1500 cycles
Class 0:
Packet latency average = 22.8088
	minimum = 7
	maximum = 37
Network latency average = 22.8088
	minimum = 7
	maximum = 37
Slowest packet = 1772
Flit latency average = 22.942
	minimum = 7
	maximum = 37
Slowest flit = 1772
Fragmentation average = 0
	minimum = 0
	maximum = 0
Injected packet rate average = 0.008875
	minimum = 0.004 (at node 3)
	maximum = 0.014 (at node 9)
Accepted packet rate average = 0.008625
	minimum = 0 (at node 0)
	maximum = 0.138 (at node 3)
Injected flit rate average = 0.008875
	minimum = 0.004 (at node 3)
	maximum = 0.014 (at node 9)
Accepted flit rate average= 0.008625
	minimum = 0 (at node 0)
	maximum = 0.138 (at node 3)
Injected packet length average = 1
Accepted packet length average = 1
Total in-flight flits = 3 (3 measured)
latency change    = 0.0117129
throughput change = 0.0434783
Class 0:
Packet latency average = 22.7538
	minimum = 7
	maximum = 38
Network latency average = 22.7538
	minimum = 7
	maximum = 38
Slowest packet = 1887
Flit latency average = 22.8244
	minimum = 7
	maximum = 38
Slowest flit = 1887
Fragmentation average = 0
	minimum = 0
	maximum = 0
Injected packet rate average = 0.0084375
	minimum = 0.005 (at node 3)
	maximum = 0.017 (at node 9)
Accepted packet rate average = 0.0081875
	minimum = 0 (at node 0)
	maximum = 0.131 (at node 3)
Injected flit rate average = 0.0084375
	minimum = 0.005 (at node 3)
	maximum = 0.017 (at node 9)
Accepted flit rate average= 0.0081875
	minimum = 0 (at node 0)
	maximum = 0.131 (at node 3)
Injected packet length average = 1
Accepted packet length average = 1
Total in-flight flits = 5 (5 measured)
latency change    = 0.00241618
throughput change = 0.0534351
Class 0:
Packet latency average = 23.0049
	minimum = 7
	maximum = 38
Network latency average = 23.0049
	minimum = 7
	maximum = 38
Slowest packet = 1887
Flit latency average = 23.049
	minimum = 7
	maximum = 38
Slowest flit = 1887
Fragmentation average = 0
	minimum = 0
	maximum = 0
Injected packet rate average = 0.00858333
	minimum = 0.00466667 (at node 0)
	maximum = 0.0133333 (at node 9)
Accepted packet rate average = 0.0085
	minimum = 0 (at node 0)
	maximum = 0.136 (at node 3)
Injected flit rate average = 0.00858333
	minimum = 0.00466667 (at node 0)
	maximum = 0.0133333 (at node 9)
Accepted flit rate average= 0.0085
	minimum = 0 (at node 0)
	maximum = 0.136 (at node 3)
Injected packet length average = 1
Accepted packet length average = 1
Total in-flight flits = 3 (3 measured)
latency change    = 0.0109142
throughput change = 0.0367647
Class 0:
Packet latency average = 22.2696
	minimum = 7
	maximum = 38
Network latency average = 22.2696
	minimum = 7
	maximum = 38
Slowest packet = 1887
Flit latency average = 22.3027
	minimum = 7
	maximum = 38
Slowest flit = 1887
Fragmentation average = 0
	minimum = 0
	maximum = 0
Injected packet rate average = 0.00921875
	minimum = 0.0055 (at node 0)
	maximum = 0.0125 (at node 8)
Accepted packet rate average = 0.0091875
	minimum = 0 (at node 0)
	maximum = 0.147 (at node 3)
Injected flit rate average = 0.00921875
	minimum = 0.0055 (at node 0)
	maximum = 0.0125 (at node 8)
Accepted flit rate average= 0.0091875
	minimum = 0 (at node 0)
	maximum = 0.147 (at node 3)
Injected packet length average = 1
Accepted packet length average = 1
Total in-flight flits = 2 (2 measured)
latency change    = 0.0330181
throughput change = 0.0748299
Class 0:
Packet latency average = 22.3087
	minimum = 7
	maximum = 38
Network latency average = 22.3087
	minimum = 7
	maximum = 38
Slowest packet = 1887
Flit latency average = 22.3351
	minimum = 7
	maximum = 38
Slowest flit = 1887
Fragmentation average = 0
	minimum = 0
	maximum = 0
Injected packet rate average = 0.0093
	minimum = 0.0064 (at node 0)
	maximum = 0.012 (at node 4)
Accepted packet rate average = 0.009175
	minimum = 0 (at node 0)
	maximum = 0.1468 (at node 3)
Injected flit rate average = 0.0093
	minimum = 0.0064 (at node 0)
	maximum = 0.012 (at node 4)
Accepted flit rate average= 0.009175
	minimum = 0 (at node 0)
	maximum = 0.1468 (at node 3)
Injected packet length average = 1
Accepted packet length average = 1
Total in-flight flits = 6 (6 measured)
latency change    = 0.00175351
throughput change = 0.0013624
Class 0:
Packet latency average = 22.56
	minimum = 7
	maximum = 38
Network latency average = 22.56
	minimum = 7
	maximum = 38
Slowest packet = 1887
Flit latency average = 22.5822
	minimum = 7
	maximum = 38
Slowest flit = 1887
Fragmentation average = 0
	minimum = 0
	maximum = 0
Injected packet rate average = 0.00891667
	minimum = 0.00633333 (at node 0)
	maximum = 0.011 (at node 4)
Accepted packet rate average = 0.008875
	minimum = 0 (at node 0)
	maximum = 0.142 (at node 3)
Injected flit rate average = 0.00891667
	minimum = 0.00633333 (at node 0)
	maximum = 0.011 (at node 4)
Accepted flit rate average= 0.008875
	minimum = 0 (at node 0)
	maximum = 0.142 (at node 3)
Injected packet length average = 1
Accepted packet length average = 1
Total in-flight flits = 3 (3 measured)
latency change    = 0.0111373
throughput change = 0.0338028
Class 0:
Packet latency average = 22.4168
	minimum = 7
	maximum = 38
Network latency average = 22.4168
	minimum = 7
	maximum = 38
Slowest packet = 1887
Flit latency average = 22.436
	minimum = 7
	maximum = 38
Slowest flit = 1887
Fragmentation average = 0
	minimum = 0
	maximum = 0
Injected packet rate average = 0.00896429
	minimum = 0.00685714 (at node 0)
	maximum = 0.0108571 (at node 4)
Accepted packet rate average = 0.00892857
	minimum = 0 (at node 0)
	maximum = 0.142857 (at node 3)
Injected flit rate average = 0.00896429
	minimum = 0.00685714 (at node 0)
	maximum = 0.0108571 (at node 4)
Accepted flit rate average= 0.00892857
	minimum = 0 (at node 0)
	maximum = 0.142857 (at node 3)
Injected packet length average = 1
Accepted packet length average = 1
Total in-flight flits = 3 (3 measured)
latency change    = 0.00638655
throughput change = 0.006
Draining all recorded packets ...
Draining remaining packets ...
Time taken is 5049 cycles
Class 0:
Packet latency average = 23.1818
	minimum = 7
	maximum = 38
Network latency average = 23.1818
	minimum = 7
	maximum = 38
Slowest packet = 2351
Flit latency average = 23.1818
	minimum = 7
	maximum = 38
Slowest flit = 2351
Fragmentation average = 0
	minimum = 0
	maximum = 0
Injected packet rate average = 0.00975
	minimum = 0 (at node 5)
	maximum = 0.016 (at node 8)
Accepted packet rate average = 0.009625
	minimum = 0 (at node 0)
	maximum = 0.154 (at node 3)
Injected flit rate average = 0.00975
	minimum = 0 (at node 5)
	maximum = 0.016 (at node 8)
Accepted flit rate average= 0.009625
	minimum = 0 (at node 0)
	maximum = 0.154 (at node 3)
Injected packet length average = 1
Accepted packet length average = 1
Total in-flight flits = 1 (0 measured)
latency change    = 1
throughput change = 1
Class 0:
Packet latency average = 22.7949
	minimum = 7
	maximum = 38
Network latency average = 22.7949
	minimum = 7
	maximum = 38
Slowest packet = 2351
Flit latency average = 22.7949
	minimum = 7
	maximum = 38
Slowest flit = 2351
Fragmentation average = 0
	minimum = 0
	maximum = 0
Injected packet rate average = 0.01
	minimum = 0.005 (at node 5)
	maximum = 0.013 (at node 0)
Accepted packet rate average = 0.00975
	minimum = 0 (at node 0)
	maximum = 0.156 (at node 3)
Injected flit rate average = 0.01
	minimum = 0.005 (at node 5)
	maximum = 0.013 (at node 0)
Accepted flit rate average= 0.00975
	minimum = 0 (at node 0)
	maximum = 0.156 (at node 3)
Injected packet length average = 1
Accepted packet length average = 1
Total in-flight flits = 4 (0 measured)
latency change    = 0.0169752
throughput change = 0.0128205
Class 0:
Packet latency average = 20.9333
	minimum = 7
	maximum = 38
Network latency average = 20.9333
	minimum = 7
	maximum = 38
Slowest packet = 2457
Flit latency average = 20.9333
	minimum = 7
	maximum = 38
Slowest flit = 2457
Fragmentation average = 0
	minimum = 0
	maximum = 0
Injected packet rate average = 0.009375
	minimum = 0.004 (at node 9)
	maximum = 0.014 (at node 2)
Accepted packet rate average = 0.009375
	minimum = 0 (at node 0)
	maximum = 0.15 (at node 3)
Injected flit rate average = 0.009375
	minimum = 0.004 (at node 9)
	maximum = 0.014 (at node 2)
Accepted flit rate average= 0.009375
	minimum = 0 (at node 0)
	maximum = 0.15 (at node 3)
Injected packet length average = 1
Accepted packet length average = 1
Total in-flight flits = 4 (0 measured)
latency change    = 0.088927
throughput change = 0.04
Warmed up ...Time used is 1500 cycles
Class 0:
Packet latency average = 22.3857
	minimum = 7
	maximum = 37
Network latency average = 22.3857
	minimum = 7
	maximum = 37
Slowest packet = 2523
Flit latency average = 22.7162
	minimum = 7
	maximum = 37
Slowest flit = 2504
Fragmentation average = 0
	minimum = 0
	maximum = 0
Injected packet rate average = 0.00925
	minimum = 0.002 (at node 0)
	maximum = 0.014 (at node 4)
Accepted packet rate average = 0.00925
	minimum = 0 (at node 0)
	maximum = 0.148 (at node 3)
Injected flit rate average = 0.00925
	minimum = 0.002 (at node 0)
	maximum = 0.014 (at node 4)
Accepted flit rate average= 0.00925
	minimum = 0 (at node 0)
	maximum = 0.148 (at node 3)
Injected packet length average = 1
Accepted packet length average = 1
Total in-flight flits = 4 (4 measured)
latency change    = 0.0648798
throughput change = 0.0135135
Class 0:
Packet latency average = 22.5346
	minimum = 7
	maximum = 44
Network latency average = 22.5346
	minimum = 7
	maximum = 44
Slowest packet = 2656
Flit latency average = 22.681
	minimum = 7
	maximum = 44
Slowest flit = 2656
Fragmentation average = 0
	minimum = 0
	maximum = 0
Injected packet rate average = 0.0103125
	minimum = 0.006 (at node 0)
	maximum = 0.016 (at node 15)
Accepted packet rate average = 0.0101875
	minimum = 0 (at node 0)
	maximum = 0.163 (at node 3)
Injected flit rate average = 0.0103125
	minimum = 0.006 (at node 0)
	maximum = 0.016 (at node 15)
Accepted flit rate average= 0.0101875
	minimum = 0 (at node 0)
	maximum = 0.163 (at node 3)
Injected packet length average = 1
Accepted packet length average = 1
Total in-flight flits = 6 (6 measured)
latency change    = 0.00660659
throughput change = 0.0920245
Class 0:
Packet latency average = 22.4444
	minimum = 7
	maximum = 44
Network latency average = 22.4444
	minimum = 7
	maximum = 44
Slowest packet = 2656
Flit latency average = 22.5462
	minimum = 7
	maximum = 44
Slowest flit = 2656
Fragmentation average = 0
	minimum = 0
	maximum = 0
Injected packet rate average = 0.009875
	minimum = 0.006 (at node 3)
	maximum = 0.014 (at node 15)
Accepted packet rate average = 0.00991667
	minimum = 0 (at node 0)
	maximum = 0.158667 (at node 3)
Injected flit rate average = 0.009875
	minimum = 0.006 (at node 3)
	maximum = 0.014 (at node 15)
Accepted flit rate average= 0.00991667
	minimum = 0 (at node 0)
	maximum = 0.158667 (at node 3)
Injected packet length average = 1
Accepted packet length average = 1
Total in-flight flits = 3 (3 measured)
latency change    = 0.00401644
throughput change = 0.0273109
Class 0:
Packet latency average = 22.3639
	minimum = 7
	maximum = 44
Network latency average = 22.3639
	minimum = 7
	maximum = 44
Slowest packet = 2656
Flit latency average = 22.4406
	minimum = 7
	maximum = 44
Slowest flit = 2656
Fragmentation average = 0
	minimum = 0
	maximum = 0
Injected packet rate average = 0.01
	minimum = 0.006 (at node 3)
	maximum = 0.014 (at node 10)
Accepted packet rate average = 0.01
	minimum = 0 (at node 0)
	maximum = 0.16 (at node 3)
Injected flit rate average = 0.01
	minimum = 0.006 (at node 3)
	maximum = 0.014 (at node 10)
Accepted flit rate average= 0.01
	minimum = 0 (at node 0)
	maximum = 0.16 (at node 3)
Injected packet length average = 1
Accepted packet length average = 1
Total in-flight flits = 4 (4 measured)
latency change    = 0.00360046
throughput change = 0.00833333
Class 0:
Packet latency average = 22.399
	minimum = 7
	maximum = 44
Network latency average = 22.399
	minimum = 7
	maximum = 44
Slowest packet = 2656
Flit latency average = 22.4608
	minimum = 7
	maximum = 44
Slowest flit = 2656
Fragmentation average = 0
	minimum = 0
	maximum = 0
Injected packet rate average = 0.009875
	minimum = 0.006 (at node 8)
	maximum = 0.0128 (at node 10)
Accepted packet rate average = 0.009875
	minimum = 0 (at node 0)
	maximum = 0.158 (at node 3)
Injected flit rate average = 0.009875
	minimum = 0.006 (at node 8)
	maximum = 0.0128 (at node 10)
Accepted flit rate average= 0.009875
	minimum = 0 (at node 0)
	maximum = 0.158 (at node 3)
Injected packet length average = 1
Accepted packet length average = 1
Total in-flight flits = 4 (4 measured)
latency change    = 0.00156493
throughput change = 0.0126582
Draining all recorded packets ...
Draining remaining packets ...
Time taken is 4046 cycles
Class 0:
Packet latency average = 22.6484
	minimum = 7
	maximum = 43
Network latency average = 22.6484
	minimum = 7
	maximum = 43
Slowest packet = 2944
Flit latency average = 22.6484
	minimum = 7
	maximum = 43
Slowest flit = 2944
Fragmentation average = 0
	minimum = 0
	maximum = 0
Injected packet rate average = 0.0115
	minimum = 0.008 (at node 1)
	maximum = 0.022 (at node 7)
Accepted packet rate average = 0.011375
	minimum = 0 (at node 0)
	maximum = 0.182 (at node 3)
Injected flit rate average = 0.0115
	minimum = 0.008 (at node 1)
	maximum = 0.022 (at node 7)
Accepted flit rate average= 0.011375
	minimum = 0 (at node 0)
	maximum = 0.182 (at node 3)
Injected packet length average = 1
Accepted packet length average = 1
Total in-flight flits = 1 (0 measured)
latency change    = 1
throughput change = 1
Class 0:
Packet latency average = 22.3779
	minimum = 7
	maximum = 43
Network latency average = 22.3779
	minimum = 7
	maximum = 43
Slowest packet = 2944
Flit latency average = 22.3779
	minimum = 7
	maximum = 43
Slowest flit = 2944
Fragmentation average = 0
	minimum = 0
	maximum = 0
Injected packet rate average = 0.011125
	minimum = 0.006 (at node 3)
	maximum = 0.02 (at node 7)
Accepted packet rate average = 0.01075
	minimum = 0 (at node 0)
	maximum = 0.172 (at node 3)
Injected flit rate average = 0.011125
	minimum = 0.006 (at node 3)
	maximum = 0.02 (at node 7)
Accepted flit rate average= 0.01075
	minimum = 0 (at node 0)
	maximum = 0.172 (at node 3)
Injected packet length average = 1
Accepted packet length average = 1
Total in-flight flits = 6 (0 measured)
latency change    = 0.0120853
throughput change = 0.0581395
Class 0:
Packet latency average = 22.7349
	minimum = 7
	maximum = 37
Network latency average = 22.7349
	minimum = 7
	maximum = 37
Slowest packet = 3106
Flit latency average = 22.7349
	minimum = 7
	maximum = 37
Slowest flit = 3106
Fragmentation average = 0
	minimum = 0
	maximum = 0
Injected packet rate average = 0.009625
	minimum = 0.002 (at node 0)
	maximum = 0.02 (at node 4)
Accepted packet rate average = 0.010375
	minimum = 0 (at node 0)
	maximum = 0.166 (at node 3)
Injected flit rate average = 0.009625
	minimum = 0.002 (at node 0)
	maximum = 0.02 (at node 4)
Accepted flit rate average= 0.010375
	minimum = 0 (at node 0)
	maximum = 0.166 (at node 3)
Injected packet length average = 1
Accepted packet length average = 1
Total in-flight flits = 0 (0 measured)
latency change    = 0.0157041
throughput change = 0.0361446
Warmed up ...Time used is 1500 cycles
Class 0:
Packet latency average = 22.3
	minimum = 7
	maximum = 37
Network latency average = 22.3
	minimum = 7
	maximum = 37
Slowest packet = 3180
Flit latency average = 22.3
	minimum = 7
	maximum = 37
Slowest flit = 3180
Fragmentation average = 0
	minimum = 0
	maximum = 0
Injected packet rate average = 0.010625
	minimum = 0 (at node 0)
	maximum = 0.018 (at node 5)
Accepted packet rate average = 0.01
	minimum = 0 (at node 0)
	maximum = 0.16 (at node 3)
Injected flit rate average = 0.010625
	minimum = 0 (at node 0)
	maximum = 0.018 (at node 5)
Accepted flit rate average= 0.01
	minimum = 0 (at node 0)
	maximum = 0.16 (at node 3)
Injected packet length average = 1
Accepted packet length average = 1
Total in-flight flits = 5 (5 measured)
latency change    = 0.019504
throughput change = 0.0375
Class 0:
Packet latency average = 22.5102
	minimum = 7
	maximum = 40
Network latency average = 22.5102
	minimum = 7
	maximum = 40
Slowest packet = 3273
Flit latency average = 22.5102
	minimum = 7
	maximum = 40
Slowest flit = 3273
Fragmentation average = 0
	minimum = 0
	maximum = 0
Injected packet rate average = 0.0095625
	minimum = 0.003 (at node 0)
	maximum = 0.013 (at node 5)
Accepted packet rate average = 0.0091875
	minimum = 0 (at node 0)
	maximum = 0.147 (at node 3)
Injected flit rate average = 0.0095625
	minimum = 0.003 (at node 0)
	maximum = 0.013 (at node 5)
Accepted flit rate average= 0.0091875
	minimum = 0 (at node 0)
	maximum = 0.147 (at node 3)
Injected packet length average = 1
Accepted packet length average = 1
Total in-flight flits = 6 (6 measured)
latency change    = 0.00933817
throughput change = 0.0884354
Class 0:
Packet latency average = 22.1903
	minimum = 7
	maximum = 40
Network latency average = 22.1903
	minimum = 7
	maximum = 40
Slowest packet = 3273
Flit latency average = 22.1903
	minimum = 7
	maximum = 40
Slowest flit = 3273
Fragmentation average = 0
	minimum = 0
	maximum = 0
Injected packet rate average = 0.00975
	minimum = 0.00266667 (at node 0)
	maximum = 0.014 (at node 13)
Accepted packet rate average = 0.00941667
	minimum = 0 (at node 0)
	maximum = 0.150667 (at node 3)
Injected flit rate average = 0.00975
	minimum = 0.00266667 (at node 0)
	maximum = 0.014 (at node 13)
Accepted flit rate average= 0.00941667
	minimum = 0 (at node 0)
	maximum = 0.150667 (at node 3)
Injected packet length average = 1
Accepted packet length average = 1
Total in-flight flits = 8 (8 measured)
latency change    = 0.014418
throughput change = 0.0243363
Class 0:
Packet latency average = 22.716
	minimum = 7
	maximum = 42
Network latency average = 22.716
	minimum = 7
	maximum = 42
Slowest packet = 3398
Flit latency average = 22.716
	minimum = 7
	maximum = 42
Slowest flit = 3398
Fragmentation average = 0
	minimum = 0
	maximum = 0
Injected packet rate average = 0.01025
	minimum = 0.005 (at node 0)
	maximum = 0.0155 (at node 13)
Accepted packet rate average = 0.010125
	minimum = 0 (at node 0)
	maximum = 0.162 (at node 3)
Injected flit rate average = 0.01025
	minimum = 0.005 (at node 0)
	maximum = 0.0155 (at node 13)
Accepted flit rate average= 0.010125
	minimum = 0 (at node 0)
	maximum = 0.162 (at node 3)
Injected packet length average = 1
Accepted packet length average = 1
Total in-flight flits = 4 (4 measured)
latency change    = 0.0231459
throughput change = 0.0699588
Class 0:
Packet latency average = 22.4467
	minimum = 7
	maximum = 42
Network latency average = 22.4467
	minimum = 7
	maximum = 42
Slowest packet = 3398
Flit latency average = 22.4467
	minimum = 7
	maximum = 42
Slowest flit = 3398
Fragmentation average = 0
	minimum = 0
	maximum = 0
Injected packet rate average = 0.0102
	minimum = 0.0064 (at node 0)
	maximum = 0.014 (at node 13)
Accepted packet rate average = 0.010075
	minimum = 0 (at node 0)
	maximum = 0.1612 (at node 3)
Injected flit rate average = 0.0102
	minimum = 0.0064 (at node 0)
	maximum = 0.014 (at node 13)
Accepted flit rate average= 0.010075
	minimum = 0 (at node 0)
	maximum = 0.1612 (at node 3)
Injected packet length average = 1
Accepted packet length average = 1
Total in-flight flits = 5 (5 measured)
latency change    = 0.0120018
throughput change = 0.00496278
Class 0:
Packet latency average = 22.3208
	minimum = 7
	maximum = 42
Network latency average = 22.3208
	minimum = 7
	maximum = 42
Slowest packet = 3398
Flit latency average = 22.3208
	minimum = 7
	maximum = 42
Slowest flit = 3398
Fragmentation average = 0
	minimum = 0
	maximum = 0
Injected packet rate average = 0.0100417
	minimum = 0.00533333 (at node 14)
	maximum = 0.0123333 (at node 13)
Accepted packet rate average = 0.01
	minimum = 0 (at node 0)
	maximum = 0.16 (at node 3)
Injected flit rate average = 0.0100417
	minimum = 0.00533333 (at node 14)
	maximum = 0.0123333 (at node 13)
Accepted flit rate average= 0.01
	minimum = 0 (at node 0)
	maximum = 0.16 (at node 3)
Injected packet length average = 1
Accepted packet length average = 1
Total in-flight flits = 2 (2 measured)
latency change    = 0.00563674
throughput change = 0.0075
Class 0:
Packet latency average = 22.2039
	minimum = 7
	maximum = 42
Network latency average = 22.2039
	minimum = 7
	maximum = 42
Slowest packet = 3398
Flit latency average = 22.2039
	minimum = 7
	maximum = 42
Slowest flit = 3398
Fragmentation average = 0
	minimum = 0
	maximum = 0
Injected packet rate average = 0.0101071
	minimum = 0.00685714 (at node 14)
	maximum = 0.0125714 (at node 13)
Accepted packet rate average = 0.0100714
	minimum = 0 (at node 0)
	maximum = 0.161143 (at node 3)
Injected flit rate average = 0.0101071
	minimum = 0.00685714 (at node 14)
	maximum = 0.0125714 (at node 13)
Accepted flit rate average= 0.0100714
	minimum = 0 (at node 0)
	maximum = 0.161143 (at node 3)
Injected packet length average = 1
Accepted packet length average = 1
Total in-flight flits = 2 (2 measured)
latency change    = 0.00526631
throughput change = 0.0070922
Draining all recorded packets ...
Draining remaining packets ...
Time taken is 5057 cycles
Class 0:
Packet latency average = 22.3108
	minimum = 7
	maximum = 37
Network latency average = 22.3108
	minimum = 7
	maximum = 37
Slowest packet = 3749
Flit latency average = 22.3108
	minimum = 7
	maximum = 37
Slowest flit = 3749
Fragmentation average = 0
	minimum = 0
	maximum = 0
Injected packet rate average = 0.009875
	minimum = 0.004 (at node 9)
	maximum = 0.016 (at node 7)
Accepted packet rate average = 0.00925
	minimum = 0 (at node 0)
	maximum = 0.148 (at node 3)
Injected flit rate average = 0.009875
	minimum = 0.004 (at node 9)
	maximum = 0.016 (at node 7)
Accepted flit rate average= 0.00925
	minimum = 0 (at node 0)
	maximum = 0.148 (at node 3)
Injected packet length average = 1
Accepted packet length average = 1
Total in-flight flits = 5 (0 measured)
latency change    = 1
throughput change = 1
Class 0:
Packet latency average = 22.2467
	minimum = 7
	maximum = 37
Network latency average = 22.2467
	minimum = 7
	maximum = 37
Slowest packet = 3749
Flit latency average = 22.2467
	minimum = 7
	maximum = 37
Slowest flit = 3749
Fragmentation average = 0
	minimum = 0
	maximum = 0
Injected packet rate average = 0.0095
	minimum = 0.003 (at node 9)
	maximum = 0.014 (at node 1)
Accepted packet rate average = 0.009375
	minimum = 0 (at node 0)
	maximum = 0.15 (at node 3)
Injected flit rate average = 0.0095
	minimum = 0.003 (at node 9)
	maximum = 0.014 (at node 1)
Accepted flit rate average= 0.009375
	minimum = 0 (at node 0)
	maximum = 0.15 (at node 3)
Injected packet length average = 1
Accepted packet length average = 1
Total in-flight flits = 2 (0 measured)
latency change    = 0.00288331
throughput change = 0.0133333
Class 0:
Packet latency average = 22.7746
	minimum = 7
	maximum = 40
Network latency average = 22.7746
	minimum = 7
	maximum = 40
Slowest packet = 3918
Flit latency average = 22.7746
	minimum = 7
	maximum = 40
Slowest flit = 3918
Fragmentation average = 0
	minimum = 0
	maximum = 0
Injected packet rate average = 0.008875
	minimum = 0.004 (at node 8)
	maximum = 0.014 (at node 4)
Accepted packet rate average = 0.008875
	minimum = 0 (at node 0)
	maximum = 0.142 (at node 3)
Injected flit rate average = 0.008875
	minimum = 0.004 (at node 8)
	maximum = 0.014 (at node 4)
Accepted flit rate average= 0.008875
	minimum = 0 (at node 0)
	maximum = 0.142 (at node 3)
Injected packet length average = 1
Accepted packet length average = 1
Total in-flight flits = 2 (0 measured)
latency change    = 0.0231828
throughput change = 0.056338
Warmed up ...Time used is 1500 cycles
Class 0:
Packet latency average = 21.25
	minimum = 7
	maximum = 37
Network latency average = 21.25
	minimum = 7
	maximum = 37
Slowest packet = 3976
Flit latency average = 21.4143
	minimum = 7
	maximum = 37
Slowest flit = 3976
Fragmentation average = 0
	minimum = 0
	maximum = 0
Injected packet rate average = 0.0085
	minimum = 0.002 (at node 4)
	maximum = 0.018 (at node 10)
Accepted packet rate average = 0.00875
	minimum = 0 (at node 0)
	maximum = 0.14 (at node 3)
Injected flit rate average = 0.0085
	minimum = 0.002 (at node 4)
	maximum = 0.018 (at node 10)
Accepted flit rate average= 0.00875
	minimum = 0 (at node 0)
	maximum = 0.14 (at node 3)
Injected packet length average = 1
Accepted packet length average = 1
Total in-flight flits = 0 (0 measured)
latency change    = 0.0717481
throughput change = 0.0142857
Class 0:
Packet latency average = 21.5676
	minimum = 7
	maximum = 37
Network latency average = 21.5676
	minimum = 7
	maximum = 37
Slowest packet = 3976
Flit latency average = 21.64
	minimum = 7
	maximum = 37
Slowest flit = 3976
Fragmentation average = 0
	minimum = 0
	maximum = 0
Injected packet rate average = 0.009375
	minimum = 0.005 (at node 4)
	maximum = 0.018 (at node 10)
Accepted packet rate average = 0.009375
	minimum = 0 (at node 0)
	maximum = 0.15 (at node 3)
Injected flit rate average = 0.009375
	minimum = 0.005 (at node 4)
	maximum = 0.018 (at node 10)
Accepted flit rate average= 0.009375
	minimum = 0 (at node 0)
	maximum = 0.15 (at node 3)
Injected packet length average = 1
Accepted packet length average = 1
Total in-flight flits = 2 (2 measured)
latency change    = 0.0147243
throughput change = 0.0666667
Class 0:
Packet latency average = 21.3347
	minimum = 7
	maximum = 38
Network latency average = 21.3347
	minimum = 7
	maximum = 38
Slowest packet = 4160
Flit latency average = 21.3811
	minimum = 7
	maximum = 38
Slowest flit = 4160
Fragmentation average = 0
	minimum = 0
	maximum = 0
Injected packet rate average = 0.0101667
	minimum = 0.006 (at node 15)
	maximum = 0.0166667 (at node 10)
Accepted packet rate average = 0.0101667
	minimum = 0 (at node 0)
	maximum = 0.162667 (at node 3)
Injected flit rate average = 0.0101667
	minimum = 0.006 (at node 15)
	maximum = 0.0166667 (at node 10)
Accepted flit rate average= 0.0101667
	minimum = 0 (at node 0)
	maximum = 0.162667 (at node 3)
Injected packet length average = 1
Accepted packet length average = 1
Total in-flight flits = 2 (2 measured)
latency change    = 0.0109145
throughput change = 0.0778689
Class 0:
Packet latency average = 20.9699
	minimum = 7
	maximum = 42
Network latency average = 20.9699
	minimum = 7
	maximum = 42
Slowest packet = 4279
Flit latency average = 21.006
	minimum = 7
	maximum = 42
Slowest flit = 4279
Fragmentation average = 0
	minimum = 0
	maximum = 0
Injected packet rate average = 0.0104688
	minimum = 0.006 (at node 15)
	maximum = 0.017 (at node 7)
Accepted packet rate average = 0.0104375
	minimum = 0 (at node 0)
	maximum = 0.167 (at node 3)
Injected flit rate average = 0.0104688
	minimum = 0.006 (at node 15)
	maximum = 0.017 (at node 7)
Accepted flit rate average= 0.0104375
	minimum = 0 (at node 0)
	maximum = 0.167 (at node 3)
Injected packet length average = 1
Accepted packet length average = 1
Total in-flight flits = 3 (3 measured)
latency change    = 0.0173979
throughput change = 0.0259481
Class 0:
Packet latency average = 21.4282
	minimum = 7
	maximum = 42
Network latency average = 21.4282
	minimum = 7
	maximum = 42
Slowest packet = 4279
Flit latency average = 21.4543
	minimum = 7
	maximum = 42
Slowest flit = 4279
Fragmentation average = 0
	minimum = 0
	maximum = 0
Injected packet rate average = 0.01075
	minimum = 0.0072 (at node 4)
	maximum = 0.0164 (at node 7)
Accepted packet rate average = 0.010675
	minimum = 0 (at node 0)
	maximum = 0.1708 (at node 3)
Injected flit rate average = 0.01075
	minimum = 0.0072 (at node 4)
	maximum = 0.0164 (at node 7)
Accepted flit rate average= 0.010675
	minimum = 0 (at node 0)
	maximum = 0.1708 (at node 3)
Injected packet length average = 1
Accepted packet length average = 1
Total in-flight flits = 5 (5 measured)
latency change    = 0.0213903
throughput change = 0.0222482
Class 0:
Packet latency average = 21.5394
	minimum = 7
	maximum = 42
Network latency average = 21.5394
	minimum = 7
	maximum = 42
Slowest packet = 4279
Flit latency average = 21.5608
	minimum = 7
	maximum = 42
Slowest flit = 4279
Fragmentation average = 0
	minimum = 0
	maximum = 0
Injected packet rate average = 0.0106042
	minimum = 0.00733333 (at node 0)
	maximum = 0.016 (at node 7)
Accepted packet rate average = 0.010625
	minimum = 0 (at node 0)
	maximum = 0.17 (at node 3)
Injected flit rate average = 0.0106042
	minimum = 0.00733333 (at node 0)
	maximum = 0.016 (at node 7)
Accepted flit rate average= 0.010625
	minimum = 0 (at node 0)
	maximum = 0.17 (at node 3)
Injected packet length average = 1
Accepted packet length average = 1
Total in-flight flits = 1 (1 measured)
latency change    = 0.00515961
throughput change = 0.00470588
Draining all recorded packets ...
Draining remaining packets ...
Time taken is 4532 cycles
Class 0:
Packet latency average = 21.6197
	minimum = 7
	maximum = 38
Network latency average = 21.6197
	minimum = 7
	maximum = 38
Slowest packet = 4531
Flit latency average = 21.6197
	minimum = 7
	maximum = 38
Slowest flit = 4531
Fragmentation average = 0
	minimum = 0
	maximum = 0
Injected packet rate average = 0.009375
	minimum = 0.004 (at node 5)
	maximum = 0.016 (at node 10)
Accepted packet rate average = 0.008875
	minimum = 0 (at node 0)
	maximum = 0.142 (at node 3)
Injected flit rate average = 0.009375
	minimum = 0.004 (at node 5)
	maximum = 0.016 (at node 10)
Accepted flit rate average= 0.008875
	minimum = 0 (at node 0)
	maximum = 0.142 (at node 3)
Injected packet length average = 1
Accepted packet length average = 1
Total in-flight flits = 4 (0 measured)
latency change    = 1
throughput change = 1
Class 0:
Packet latency average = 22.3907
	minimum = 7
	maximum = 39
Network latency average = 22.3907
	minimum = 7
	maximum = 39
Slowest packet = 4611
Flit latency average = 22.3907
	minimum = 7
	maximum = 39
Slowest flit = 4611
Fragmentation average = 0
	minimum = 0
	maximum = 0
Injected packet rate average = 0.009625
	minimum = 0.003 (at node 5)
	maximum = 0.016 (at node 9)
Accepted packet rate average = 0.0094375
	minimum = 0 (at node 0)
	maximum = 0.151 (at node 3)
Injected flit rate average = 0.009625
	minimum = 0.003 (at node 5)
	maximum = 0.016 (at node 9)
Accepted flit rate average= 0.0094375
	minimum = 0 (at node 0)
	maximum = 0.151 (at node 3)
Injected packet length average = 1
Accepted packet length average = 1
Total in-flight flits = 3 (0 measured)
latency change    = 0.0344343
throughput change = 0.0596026
Class 0:
Packet latency average = 22.407
	minimum = 7
	maximum = 38
Network latency average = 22.407
	minimum = 7
	maximum = 38
Slowest packet = 4632
Flit latency average = 22.407
	minimum = 7
	maximum = 38
Slowest flit = 4632
Fragmentation average = 0
	minimum = 0
	maximum = 0
Injected packet rate average = 0.0105
	minimum = 0.002 (at node 9)
	maximum = 0.022 (at node 6)
Accepted packet rate average = 0.01075
	minimum = 0 (at node 0)
	maximum = 0.172 (at node 3)
Injected flit rate average = 0.0105
	minimum = 0.002 (at node 9)
	maximum = 0.022 (at node 6)
Accepted flit rate average= 0.01075
	minimum = 0 (at node 0)
	maximum = 0.172 (at node 3)
Injected packet length average = 1
Accepted packet length average = 1
Total in-flight flits = 1 (0 measured)
latency change    = 0.000725143
throughput change = 0.122093
Warmed up ...Time used is 1500 cycles
Class 0:
Packet latency average = 22.7952
	minimum = 7
	maximum = 40
Network latency average = 22.7952
	minimum = 7
	maximum = 40
Slowest packet = 4728
Flit latency average = 22.7857
	minimum = 7
	maximum = 40
Slowest flit = 4728
Fragmentation average = 0
	minimum = 0
	maximum = 0
Injected packet rate average = 0.010875
	minimum = 0.002 (at node 6)
	maximum = 0.016 (at node 3)
Accepted packet rate average = 0.0105
	minimum = 0 (at node 0)
	maximum = 0.168 (at node 3)
Injected flit rate average = 0.010875
	minimum = 0.002 (at node 6)
	maximum = 0.016 (at node 3)
Accepted flit rate average= 0.0105
	minimum = 0 (at node 0)
	maximum = 0.168 (at node 3)
Injected packet length average = 1
Accepted packet length average = 1
Total in-flight flits = 4 (4 measured)
latency change    = 0.0170301
throughput change = 0.0238095
Class 0:
Packet latency average = 22.3598
	minimum = 7
	maximum = 40
Network latency average = 22.3598
	minimum = 7
	maximum = 40
Slowest packet = 4728
Flit latency average = 22.3579
	minimum = 7
	maximum = 40
Slowest flit = 4728
Fragmentation average = 0
	minimum = 0
	maximum = 0
Injected packet rate average = 0.012375
	minimum = 0.008 (at node 1)
	maximum = 0.018 (at node 8)
Accepted packet rate average = 0.011875
	minimum = 0 (at node 0)
	maximum = 0.19 (at node 3)
Injected flit rate average = 0.012375
	minimum = 0.008 (at node 1)
	maximum = 0.018 (at node 8)
Accepted flit rate average= 0.011875
	minimum = 0 (at node 0)
	maximum = 0.19 (at node 3)
Injected packet length average = 1
Accepted packet length average = 1
Total in-flight flits = 9 (9 measured)
latency change    = 0.0194721
throughput change = 0.115789
Class 0:
Packet latency average = 22.2862
	minimum = 7
	maximum = 40
Network latency average = 22.2862
	minimum = 7
	maximum = 40
Slowest packet = 4728
Flit latency average = 22.2852
	minimum = 7
	maximum = 40
Slowest flit = 4728
Fragmentation average = 0
	minimum = 0
	maximum = 0
Injected packet rate average = 0.0120417
	minimum = 0.00866667 (at node 1)
	maximum = 0.016 (at node 8)
Accepted packet rate average = 0.0118333
	minimum = 0 (at node 0)
	maximum = 0.189333 (at node 3)
Injected flit rate average = 0.0120417
	minimum = 0.00866667 (at node 1)
	maximum = 0.016 (at node 8)
Accepted flit rate average= 0.0118333
	minimum = 0 (at node 0)
	maximum = 0.189333 (at node 3)
Injected packet length average = 1
Accepted packet length average = 1
Total in-flight flits = 6 (6 measured)
latency change    = 0.00330111
throughput change = 0.00352113
Class 0:
Packet latency average = 22.2
	minimum = 7
	maximum = 40
Network latency average = 22.2
	minimum = 7
	maximum = 40
Slowest packet = 4728
Flit latency average = 22.1995
	minimum = 7
	maximum = 40
Slowest flit = 4728
Fragmentation average = 0
	minimum = 0
	maximum = 0
Injected packet rate average = 0.011625
	minimum = 0.0075 (at node 5)
	maximum = 0.0145 (at node 8)
Accepted packet rate average = 0.0114375
	minimum = 0 (at node 0)
	maximum = 0.183 (at node 3)
Injected flit rate average = 0.011625
	minimum = 0.0075 (at node 5)
	maximum = 0.0145 (at node 8)
Accepted flit rate average= 0.0114375
	minimum = 0 (at node 0)
	maximum = 0.183 (at node 3)
Injected packet length average = 1
Accepted packet length average = 1
Total in-flight flits = 7 (7 measured)
latency change    = 0.00388374
throughput change = 0.0346084
Class 0:
Packet latency average = 22.0438
	minimum = 7
	maximum = 43
Network latency average = 22.0438
	minimum = 7
	maximum = 43
Slowest packet = 5142
Flit latency average = 22.0437
	minimum = 7
	maximum = 43
Slowest flit = 5142
Fragmentation average = 0
	minimum = 0
	maximum = 0
Injected packet rate average = 0.011475
	minimum = 0.0088 (at node 5)
	maximum = 0.0128 (at node 3)
Accepted packet rate average = 0.01145
	minimum = 0 (at node 0)
	maximum = 0.1832 (at node 3)
Injected flit rate average = 0.011475
	minimum = 0.0088 (at node 5)
	maximum = 0.0128 (at node 3)
Accepted flit rate average= 0.01145
	minimum = 0 (at node 0)
	maximum = 0.1832 (at node 3)
Injected packet length average = 1
Accepted packet length average = 1
Total in-flight flits = 2 (2 measured)
latency change    = 0.00708755
throughput change = 0.0010917
Draining all recorded packets ...
Draining remaining packets ...
Time taken is 4060 cycles
Class 0:
Packet latency average = 23.3506
	minimum = 7
	maximum = 38
Network latency average = 23.3506
	minimum = 7
	maximum = 38
Slowest packet = 5230
Flit latency average = 23.3506
	minimum = 7
	maximum = 38
Slowest flit = 5230
Fragmentation average = 0
	minimum = 0
	maximum = 0
Injected packet rate average = 0.009875
	minimum = 0.002 (at node 4)
	maximum = 0.02 (at node 13)
Accepted packet rate average = 0.009625
	minimum = 0 (at node 0)
	maximum = 0.154 (at node 3)
Injected flit rate average = 0.009875
	minimum = 0.002 (at node 4)
	maximum = 0.02 (at node 13)
Accepted flit rate average= 0.009625
	minimum = 0 (at node 0)
	maximum = 0.154 (at node 3)
Injected packet length average = 1
Accepted packet length average = 1
Total in-flight flits = 2 (0 measured)
latency change    = 1
throughput change = 1
Class 0:
Packet latency average = 22.2143
	minimum = 7
	maximum = 38
Network latency average = 22.2143
	minimum = 7
	maximum = 38
Slowest packet = 5230
Flit latency average = 22.2143
	minimum = 7
	maximum = 38
Slowest flit = 5230
Fragmentation average = 0
	minimum = 0
	maximum = 0
Injected packet rate average = 0.0098125
	minimum = 0.005 (at node 4)
	maximum = 0.015 (at node 13)
Accepted packet rate average = 0.009625
	minimum = 0 (at node 0)
	maximum = 0.154 (at node 3)
Injected flit rate average = 0.0098125
	minimum = 0.005 (at node 4)
	maximum = 0.015 (at node 13)
Accepted flit rate average= 0.009625
	minimum = 0 (at node 0)
	maximum = 0.154 (at node 3)
Injected packet length average = 1
Accepted packet length average = 1
Total in-flight flits = 3 (0 measured)
latency change    = 0.0511546
throughput change = 0
Class 0:
Packet latency average = 23.0682
	minimum = 7
	maximum = 37
Network latency average = 23.0682
	minimum = 7
	maximum = 37
Slowest packet = 5330
Flit latency average = 23.0682
	minimum = 7
	maximum = 37
Slowest flit = 5330
Fragmentation average = 0
	minimum = 0
	maximum = 0
Injected packet rate average = 0.011
	minimum = 0.002 (at node 0)
	maximum = 0.018 (at node 1)
Accepted packet rate average = 0.011
	minimum = 0 (at node 0)
	maximum = 0.176 (at node 3)
Injected flit rate average = 0.011
	minimum = 0.002 (at node 0)
	maximum = 0.018 (at node 1)
Accepted flit rate average= 0.011
	minimum = 0 (at node 0)
	maximum = 0.176 (at node 3)
Injected packet length average = 1
Accepted packet length average = 1
Total in-flight flits = 3 (0 measured)
latency change    = 0.0370162
throughput change = 0.125
Warmed up ...Time used is 1500 cycles
Class 0:
Packet latency average = 22.2824
	minimum = 7
	maximum = 38
Network latency average = 22.2824
	minimum = 7
	maximum = 38
Slowest packet = 5429
Flit latency average = 22.3977
	minimum = 7
	maximum = 38
Slowest flit = 5429
Fragmentation average = 0
	minimum = 0
	maximum = 0
Injected packet rate average = 0.010625
	minimum = 0.004 (at node 8)
	maximum = 0.022 (at node 11)
Accepted packet rate average = 0.011
	minimum = 0 (at node 0)
	maximum = 0.176 (at node 3)
Injected flit rate average = 0.010625
	minimum = 0.004 (at node 8)
	maximum = 0.022 (at node 11)
Accepted flit rate average= 0.011
	minimum = 0 (at node 0)
	maximum = 0.176 (at node 3)
Injected packet length average = 1
Accepted packet length average = 1
Total in-flight flits = 0 (0 measured)
latency change    = 0.0352669
throughput change = 0
Class 0:
Packet latency average = 22.2249
	minimum = 7
	maximum = 44
Network latency average = 22.2249
	minimum = 7
	maximum = 44
Slowest packet = 5534
Flit latency average = 22.2849
	minimum = 7
	maximum = 44
Slowest flit = 5534
Fragmentation average = 0
	minimum = 0
	maximum = 0
Injected packet rate average = 0.0108125
	minimum = 0.005 (at node 8)
	maximum = 0.016 (at node 7)
Accepted packet rate average = 0.01075
	minimum = 0 (at node 0)
	maximum = 0.172 (at node 3)
Injected flit rate average = 0.0108125
	minimum = 0.005 (at node 8)
	maximum = 0.016 (at node 7)
Accepted flit rate average= 0.01075
	minimum = 0 (at node 0)
	maximum = 0.172 (at node 3)
Injected packet length average = 1
Accepted packet length average = 1
Total in-flight flits = 4 (4 measured)
latency change    = 0.00258723
throughput change = 0.0232558
Class 0:
Packet latency average = 21.8924
	minimum = 7
	maximum = 44
Network latency average = 21.8924
	minimum = 7
	maximum = 44
Slowest packet = 5534
Flit latency average = 21.937
	minimum = 7
	maximum = 44
Slowest flit = 5534
Fragmentation average = 0
	minimum = 0
	maximum = 0
Injected packet rate average = 0.010625
	minimum = 0.00466667 (at node 10)
	maximum = 0.014 (at node 3)
Accepted packet rate average = 0.0105833
	minimum = 0 (at node 0)
	maximum = 0.169333 (at node 3)
Injected flit rate average = 0.010625
	minimum = 0.00466667 (at node 10)
	maximum = 0.014 (at node 3)
Accepted flit rate average= 0.0105833
	minimum = 0 (at node 0)
	maximum = 0.169333 (at node 3)
Injected packet length average = 1
Accepted packet length average = 1
Total in-flight flits = 4 (4 measured)
latency change    = 0.0151843
throughput change = 0.015748
Draining all recorded packets ...
Draining remaining packets ...
Time taken is 3043 cycles
Class 0:
Packet latency average = 21.9275
	minimum = 7
	maximum = 37
Network latency average = 21.9275
	minimum = 7
	maximum = 37
Slowest packet = 5690
Flit latency average = 21.9275
	minimum = 7
	maximum = 37
Slowest flit = 5690
Fragmentation average = 0
	minimum = 0
	maximum = 0
Injected packet rate average = 0.00875
	minimum = 0.002 (at node 6)
	maximum = 0.018 (at node 10)
Accepted packet rate average = 0.008625
	minimum = 0 (at node 0)
	maximum = 0.138 (at node 3)
Injected flit rate average = 0.00875
	minimum = 0.002 (at node 6)
	maximum = 0.018 (at node 10)
Accepted flit rate average= 0.008625
	minimum = 0 (at node 0)
	maximum = 0.138 (at node 3)
Injected packet length average = 1
Accepted packet length average = 1
Total in-flight flits = 1 (0 measured)
latency change    = 1
throughput change = 1
Class 0:
Packet latency average = 21.7885
	minimum = 7
	maximum = 37
Network latency average = 21.7885
	minimum = 7
	maximum = 37
Slowest packet = 5690
Flit latency average = 21.7885
	minimum = 7
	maximum = 37
Slowest flit = 5690
Fragmentation average = 0
	minimum = 0
	maximum = 0
Injected packet rate average = 0.01
	minimum = 0.006 (at node 11)
	maximum = 0.018 (at node 8)
Accepted packet rate average = 0.00975
	minimum = 0 (at node 0)
	maximum = 0.156 (at node 3)
Injected flit rate average = 0.01
	minimum = 0.006 (at node 11)
	maximum = 0.018 (at node 8)
Accepted flit rate average= 0.00975
	minimum = 0 (at node 0)
	maximum = 0.156 (at node 3)
Injected packet length average = 1
Accepted packet length average = 1
Total in-flight flits = 4 (0 measured)
latency change    = 0.00638295
throughput change = 0.115385
Class 0:
Packet latency average = 24.2805
	minimum = 7
	maximum = 38
Network latency average = 24.2805
	minimum = 7
	maximum = 38
Slowest packet = 5872
Flit latency average = 24.2805
	minimum = 7
	maximum = 38
Slowest flit = 5872
Fragmentation average = 0
	minimum = 0
	maximum = 0
Injected packet rate average = 0.010125
	minimum = 0.004 (at node 2)
	maximum = 0.018 (at node 14)
Accepted packet rate average = 0.01025
	minimum = 0 (at node 0)
	maximum = 0.164 (at node 3)
Injected flit rate average = 0.010125
	minimum = 0.004 (at node 2)
	maximum = 0.018 (at node 14)
Accepted flit rate average= 0.01025
	minimum = 0 (at node 0)
	maximum = 0.164 (at node 3)
Injected packet length average = 1
Accepted packet length average = 1
Total in-flight flits = 3 (0 measured)
latency change    = 0.102635
throughput change = 0.0487805
Warmed up ...Time used is 1500 cycles
Class 0:
Packet latency average = 22.1176
	minimum = 7
	maximum = 37
Network latency average = 22.1176
	minimum = 7
	maximum = 37
Slowest packet = 5952
Flit latency average = 22.2535
	minimum = 7
	maximum = 37
Slowest flit = 5952
Fragmentation average = 0
	minimum = 0
	maximum = 0
Injected packet rate average = 0.00875
	minimum = 0.002 (at node 13)
	maximum = 0.016 (at node 14)
Accepted packet rate average = 0.008875
	minimum = 0 (at node 0)
	maximum = 0.142 (at node 3)
Injected flit rate average = 0.00875
	minimum = 0.002 (at node 13)
	maximum = 0.016 (at node 14)
Accepted flit rate average= 0.008875
	minimum = 0 (at node 0)
	maximum = 0.142 (at node 3)
Injected packet length average = 1
Accepted packet length average = 1
Total in-flight flits = 2 (2 measured)
latency change    = 0.097788
throughput change = 0.15493
Class 0:
Packet latency average = 21.2556
	minimum = 7
	maximum = 37
Network latency average = 21.2556
	minimum = 7
	maximum = 37
Slowest packet = 5952
Flit latency average = 21.3456
	minimum = 7
	maximum = 37
Slowest flit = 5952
Fragmentation average = 0
	minimum = 0
	maximum = 0
Injected packet rate average = 0.0085
	minimum = 0.002 (at node 3)
	maximum = 0.014 (at node 7)
Accepted packet rate average = 0.0085
	minimum = 0 (at node 0)
	maximum = 0.136 (at node 3)
Injected flit rate average = 0.0085
	minimum = 0.002 (at node 3)
	maximum = 0.014 (at node 7)
Accepted flit rate average= 0.0085
	minimum = 0 (at node 0)
	maximum = 0.136 (at node 3)
Injected packet length average = 1
Accepted packet length average = 1
Total in-flight flits = 3 (3 measured)
latency change    = 0.0405543
throughput change = 0.0441176
Class 0:
Packet latency average = 21.5498
	minimum = 7
	maximum = 39
Network latency average = 21.5498
	minimum = 7
	maximum = 39
Slowest packet = 6112
Flit latency average = 21.6028
	minimum = 7
	maximum = 39
Slowest flit = 6112
Fragmentation average = 0
	minimum = 0
	maximum = 0
Injected packet rate average = 0.00891667
	minimum = 0.00533333 (at node 3)
	maximum = 0.0126667 (at node 1)
Accepted packet rate average = 0.00891667
	minimum = 0 (at node 0)
	maximum = 0.142667 (at node 3)
Injected flit rate average = 0.00891667
	minimum = 0.00533333 (at node 3)
	maximum = 0.0126667 (at node 1)
Accepted flit rate average= 0.00891667
	minimum = 0 (at node 0)
	maximum = 0.142667 (at node 3)
Injected packet length average = 1
Accepted packet length average = 1
Total in-flight flits = 3 (3 measured)
latency change    = 0.0136486
throughput change = 0.046729
Class 0:
Packet latency average = 21.6167
	minimum = 7
	maximum = 39
Network latency average = 21.6167
	minimum = 7
	maximum = 39
Slowest packet = 6112
Flit latency average = 21.6535
	minimum = 7
	maximum = 39
Slowest flit = 6112
Fragmentation average = 0
	minimum = 0
	maximum = 0
Injected packet rate average = 0.00946875
	minimum = 0.007 (at node 13)
	maximum = 0.0135 (at node 7)
Accepted packet rate average = 0.00946875
	minimum = 0 (at node 0)
	maximum = 0.1515 (at node 3)
Injected flit rate average = 0.00946875
	minimum = 0.007 (at node 13)
	maximum = 0.0135 (at node 7)
Accepted flit rate average= 0.00946875
	minimum = 0 (at node 0)
	maximum = 0.1515 (at node 3)
Injected packet length average = 1
Accepted packet length average = 1
Total in-flight flits = 3 (3 measured)
latency change    = 0.003095
throughput change = 0.0583058
Class 0:
Packet latency average = 21.5013
	minimum = 7
	maximum = 39
Network latency average = 21.5013
	minimum = 7
	maximum = 39
Slowest packet = 6112
Flit latency average = 21.5314
	minimum = 7
	maximum = 39
Slowest flit = 6112
Fragmentation average = 0
	minimum = 0
	maximum = 0
Injected packet rate average = 0.00955
	minimum = 0.0072 (at node 12)
	maximum = 0.0124 (at node 7)
Accepted packet rate average = 0.00955
	minimum = 0 (at node 0)
	maximum = 0.1528 (at node 3)
Injected flit rate average = 0.00955
	minimum = 0.0072 (at node 12)
	maximum = 0.0124 (at node 7)
Accepted flit rate average= 0.00955
	minimum = 0 (at node 0)
	maximum = 0.1528 (at node 3)
Injected packet length average = 1
Accepted packet length average = 1
Total in-flight flits = 3 (3 measured)
latency change    = 0.00536467
throughput change = 0.00850785
Class 0:
Packet latency average = 21.7983
	minimum = 7
	maximum = 39
Network latency average = 21.7983
	minimum = 7
	maximum = 39
Slowest packet = 6112
Flit latency average = 21.8211
	minimum = 7
	maximum = 39
Slowest flit = 6112
Fragmentation average = 0
	minimum = 0
	maximum = 0
Injected packet rate average = 0.009625
	minimum = 0.007 (at node 13)
	maximum = 0.0116667 (at node 0)
Accepted packet rate average = 0.00966667
	minimum = 0 (at node 0)
	maximum = 0.154667 (at node 3)
Injected flit rate average = 0.009625
	minimum = 0.007 (at node 13)
	maximum = 0.0116667 (at node 0)
Accepted flit rate average= 0.00966667
	minimum = 0 (at node 0)
	maximum = 0.154667 (at node 3)
Injected packet length average = 1
Accepted packet length average = 1
Total in-flight flits = 1 (1 measured)
latency change    = 0.0136224
throughput change = 0.012069
Class 0:
Packet latency average = 21.7259
	minimum = 7
	maximum = 39
Network latency average = 21.7259
	minimum = 7
	maximum = 39
Slowest packet = 6112
Flit latency average = 21.7466
	minimum = 7
	maximum = 39
Slowest flit = 6112
Fragmentation average = 0
	minimum = 0
	maximum = 0
Injected packet rate average = 0.00928571
	minimum = 0.006 (at node 13)
	maximum = 0.0117143 (at node 0)
Accepted packet rate average = 0.00930357
	minimum = 0 (at node 0)
	maximum = 0.148857 (at node 3)
Injected flit rate average = 0.00928571
	minimum = 0.006 (at node 13)
	maximum = 0.0117143 (at node 0)
Accepted flit rate average= 0.00930357
	minimum = 0 (at node 0)
	maximum = 0.148857 (at node 3)
Injected packet length average = 1
Accepted packet length average = 1
Total in-flight flits = 2 (2 measured)
latency change    = 0.00333224
throughput change = 0.0390275
Draining all recorded packets ...
Draining remaining packets ...
Time taken is 5037 cycles
Class 0:
Packet latency average = 22.7746
	minimum = 7
	maximum = 37
Network latency average = 22.7746
	minimum = 7
	maximum = 37
Slowest packet = 6492
Flit latency average = 22.7746
	minimum = 7
	maximum = 37
Slowest flit = 6492
Fragmentation average = 0
	minimum = 0
	maximum = 0
Injected packet rate average = 0.009375
	minimum = 0 (at node 15)
	maximum = 0.018 (at node 0)
Accepted packet rate average = 0.008875
	minimum = 0 (at node 0)
	maximum = 0.142 (at node 3)
Injected flit rate average = 0.009375
	minimum = 0 (at node 15)
	maximum = 0.018 (at node 0)
Accepted flit rate average= 0.008875
	minimum = 0 (at node 0)
	maximum = 0.142 (at node 3)
Injected packet length average = 1
Accepted packet length average = 1
Total in-flight flits = 4 (0 measured)
latency change    = 1
throughput change = 1
Class 0:
Packet latency average = 21.3396
	minimum = 7
	maximum = 37
Network latency average = 21.3396
	minimum = 7
	maximum = 37
Slowest packet = 6492
Flit latency average = 21.3396
	minimum = 7
	maximum = 37
Slowest flit = 6492
Fragmentation average = 0
	minimum = 0
	maximum = 0
Injected packet rate average = 0.0100625
	minimum = 0.004 (at node 12)
	maximum = 0.014 (at node 1)
Accepted packet rate average = 0.0099375
	minimum = 0 (at node 0)
	maximum = 0.159 (at node 3)
Injected flit rate average = 0.0100625
	minimum = 0.004 (at node 12)
	maximum = 0.014 (at node 1)
Accepted flit rate average= 0.0099375
	minimum = 0 (at node 0)
	maximum = 0.159 (at node 3)
Injected packet length average = 1
Accepted packet length average = 1
Total in-flight flits = 2 (0 measured)
latency change    = 0.067247
throughput change = 0.106918
Class 0:
Packet latency average = 23.2162
	minimum = 7
	maximum = 37
Network latency average = 23.2162
	minimum = 7
	maximum = 37
Slowest packet = 6631
Flit latency average = 23.2162
	minimum = 7
	maximum = 37
Slowest flit = 6631
Fragmentation average = 0
	minimum = 0
	maximum = 0
Injected packet rate average = 0.01
	minimum = 0 (at node 5)
	maximum = 0.02 (at node 0)
Accepted packet rate average = 0.00925
	minimum = 0 (at node 0)
	maximum = 0.148 (at node 3)
Injected flit rate average = 0.01
	minimum = 0 (at node 5)
	maximum = 0.02 (at node 0)
Accepted flit rate average= 0.00925
	minimum = 0 (at node 0)
	maximum = 0.148 (at node 3)
Injected packet length average = 1
Accepted packet length average = 1
Total in-flight flits = 8 (0 measured)
latency change    = 0.0808312
throughput change = 0.0743243
Warmed up ...Time used is 1500 cycles
Class 0:
Packet latency average = 22.5647
	minimum = 7
	maximum = 37
Network latency average = 22.5647
	minimum = 7
	maximum = 37
Slowest packet = 6691
Flit latency average = 23.086
	minimum = 7
	maximum = 40
Slowest flit = 6681
Fragmentation average = 0
	minimum = 0
	maximum = 0
Injected packet rate average = 0.01125
	minimum = 0.006 (at node 11)
	maximum = 0.022 (at node 4)
Accepted packet rate average = 0.011625
	minimum = 0 (at node 0)
	maximum = 0.186 (at node 3)
Injected flit rate average = 0.01125
	minimum = 0.006 (at node 11)
	maximum = 0.022 (at node 4)
Accepted flit rate average= 0.011625
	minimum = 0 (at node 0)
	maximum = 0.186 (at node 3)
Injected packet length average = 1
Accepted packet length average = 1
Total in-flight flits = 5 (5 measured)
latency change    = 0.028873
throughput change = 0.204301
Class 0:
Packet latency average = 22.3006
	minimum = 7
	maximum = 37
Network latency average = 22.3006
	minimum = 7
	maximum = 37
Slowest packet = 6691
Flit latency average = 22.5965
	minimum = 7
	maximum = 40
Slowest flit = 6681
Fragmentation average = 0
	minimum = 0
	maximum = 0
Injected packet rate average = 0.0104375
	minimum = 0.007 (at node 3)
	maximum = 0.017 (at node 4)
Accepted packet rate average = 0.0106875
	minimum = 0 (at node 0)
	maximum = 0.171 (at node 3)
Injected flit rate average = 0.0104375
	minimum = 0.007 (at node 3)
	maximum = 0.017 (at node 4)
Accepted flit rate average= 0.0106875
	minimum = 0 (at node 0)
	maximum = 0.171 (at node 3)
Injected packet length average = 1
Accepted packet length average = 1
Total in-flight flits = 4 (4 measured)
latency change    = 0.0118424
throughput change = 0.0877193
Class 0:
Packet latency average = 22.075
	minimum = 7
	maximum = 37
Network latency average = 22.075
	minimum = 7
	maximum = 37
Slowest packet = 6691
Flit latency average = 22.2863
	minimum = 7
	maximum = 40
Slowest flit = 6681
Fragmentation average = 0
	minimum = 0
	maximum = 0
Injected packet rate average = 0.01025
	minimum = 0.00733333 (at node 0)
	maximum = 0.016 (at node 8)
Accepted packet rate average = 0.0103333
	minimum = 0 (at node 0)
	maximum = 0.165333 (at node 3)
Injected flit rate average = 0.01025
	minimum = 0.00733333 (at node 0)
	maximum = 0.016 (at node 8)
Accepted flit rate average= 0.0103333
	minimum = 0 (at node 0)
	maximum = 0.165333 (at node 3)
Injected packet length average = 1
Accepted packet length average = 1
Total in-flight flits = 6 (6 measured)
latency change    = 0.0102203
throughput change = 0.0342742
Class 0:
Packet latency average = 22.2065
	minimum = 7
	maximum = 38
Network latency average = 22.2065
	minimum = 7
	maximum = 38
Slowest packet = 7001
Flit latency average = 22.3545
	minimum = 7
	maximum = 40
Slowest flit = 6681
Fragmentation average = 0
	minimum = 0
	maximum = 0
Injected packet rate average = 0.0107188
	minimum = 0.0075 (at node 14)
	maximum = 0.016 (at node 8)
Accepted packet rate average = 0.0108437
	minimum = 0 (at node 0)
	maximum = 0.1735 (at node 3)
Injected flit rate average = 0.0107188
	minimum = 0.0075 (at node 14)
	maximum = 0.016 (at node 8)
Accepted flit rate average= 0.0108437
	minimum = 0 (at node 0)
	maximum = 0.1735 (at node 3)
Injected packet length average = 1
Accepted packet length average = 1
Total in-flight flits = 4 (4 measured)
latency change    = 0.00592123
throughput change = 0.0470701
Class 0:
Packet latency average = 22.201
	minimum = 7
	maximum = 38
Network latency average = 22.201
	minimum = 7
	maximum = 38
Slowest packet = 7001
Flit latency average = 22.3216
	minimum = 7
	maximum = 40
Slowest flit = 6681
Fragmentation average = 0
	minimum = 0
	maximum = 0
Injected packet rate average = 0.01045
	minimum = 0.0076 (at node 1)
	maximum = 0.0144 (at node 8)
Accepted packet rate average = 0.01065
	minimum = 0 (at node 0)
	maximum = 0.1704 (at node 3)
Injected flit rate average = 0.01045
	minimum = 0.0076 (at node 1)
	maximum = 0.0144 (at node 8)
Accepted flit rate average= 0.01065
	minimum = 0 (at node 0)
	maximum = 0.1704 (at node 3)
Injected packet length average = 1
Accepted packet length average = 1
Total in-flight flits = 0 (0 measured)
latency change    = 0.000249212
throughput change = 0.0181925
Draining all recorded packets ...
Draining remaining packets ...
Time taken is 4001 cycles
Class 0:
Packet latency average = 22.7778
	minimum = 7
	maximum = 38
Network latency average = 22.7778
	minimum = 7
	maximum = 38
Slowest packet = 7171
Flit latency average = 22.7778
	minimum = 7
	maximum = 38
Slowest flit = 7171
Fragmentation average = 0
	minimum = 0
	maximum = 0
Injected packet rate average = 0.009125
	minimum = 0 (at node 2)
	maximum = 0.018 (at node 0)
Accepted packet rate average = 0.009
	minimum = 0 (at node 0)
	maximum = 0.144 (at node 3)
Injected flit rate average = 0.009125
	minimum = 0 (at node 2)
	maximum = 0.018 (at node 0)
Accepted flit rate average= 0.009
	minimum = 0 (at node 0)
	maximum = 0.144 (at node 3)
Injected packet length average = 1
Accepted packet length average = 1
Total in-flight flits = 1 (0 measured)
latency change    = 1
throughput change = 1
Class 0:
Packet latency average = 22.3401
	minimum = 7
	maximum = 38
Network latency average = 22.3401
	minimum = 7
	maximum = 38
Slowest packet = 7171
Flit latency average = 22.3401
	minimum = 7
	maximum = 38
Slowest flit = 7171
Fragmentation average = 0
	minimum = 0
	maximum = 0
Injected packet rate average = 0.0095625
	minimum = 0.003 (at node 2)
	maximum = 0.018 (at node 4)
Accepted packet rate average = 0.0091875
	minimum = 0 (at node 0)
	maximum = 0.147 (at node 3)
Injected flit rate average = 0.0095625
	minimum = 0.003 (at node 2)
	maximum = 0.018 (at node 4)
Accepted flit rate average= 0.0091875
	minimum = 0 (at node 0)
	maximum = 0.147 (at node 3)
Injected packet length average = 1
Accepted packet length average = 1
Total in-flight flits = 6 (0 measured)
latency change    = 0.0195899
throughput change = 0.0204082
Class 0:
Packet latency average = 22.8219
	minimum = 7
	maximum = 37
Network latency average = 22.8219
	minimum = 7
	maximum = 37
Slowest packet = 7248
Flit latency average = 22.8219
	minimum = 7
	maximum = 37
Slowest flit = 7248
Fragmentation average = 0
	minimum = 0
	maximum = 0
Injected packet rate average = 0.008875
	minimum = 0.002 (at node 7)
	maximum = 0.016 (at node 6)
Accepted packet rate average = 0.009125
	minimum = 0 (at node 0)
	maximum = 0.146 (at node 3)
Injected flit rate average = 0.008875
	minimum = 0.002 (at node 7)
	maximum = 0.016 (at node 6)
Accepted flit rate average= 0.009125
	minimum = 0 (at node 0)
	maximum = 0.146 (at node 3)
Injected packet length average = 1
Accepted packet length average = 1
Total in-flight flits = 4 (0 measured)
latency change    = 0.0211105
throughput change = 0.00684932
Warmed up ...Time used is 1500 cycles
Class 0:
Packet latency average = 22.8919
	minimum = 7
	maximum = 37
Network latency average = 22.8919
	minimum = 7
	maximum = 37
Slowest packet = 7338
Flit latency average = 23.141
	minimum = 7
	maximum = 37
Slowest flit = 7338
Fragmentation average = 0
	minimum = 0
	maximum = 0
Injected packet rate average = 0.009375
	minimum = 0.004 (at node 6)
	maximum = 0.018 (at node 13)
Accepted packet rate average = 0.00975
	minimum = 0 (at node 0)
	maximum = 0.156 (at node 3)
Injected flit rate average = 0.009375
	minimum = 0.004 (at node 6)
	maximum = 0.018 (at node 13)
Accepted flit rate average= 0.00975
	minimum = 0 (at node 0)
	maximum = 0.156 (at node 3)
Injected packet length average = 1
Accepted packet length average = 1
Total in-flight flits = 1 (1 measured)
latency change    = 0.00305672
throughput change = 0.0641026
Class 0:
Packet latency average = 22.3484
	minimum = 7
	maximum = 41
Network latency average = 22.3484
	minimum = 7
	maximum = 41
Slowest packet = 7440
Flit latency average = 22.4843
	minimum = 7
	maximum = 41
Slowest flit = 7440
Fragmentation average = 0
	minimum = 0
	maximum = 0
Injected packet rate average = 0.00975
	minimum = 0.006 (at node 1)
	maximum = 0.015 (at node 15)
Accepted packet rate average = 0.0099375
	minimum = 0 (at node 0)
	maximum = 0.159 (at node 3)
Injected flit rate average = 0.00975
	minimum = 0.006 (at node 1)
	maximum = 0.015 (at node 15)
Accepted flit rate average= 0.0099375
	minimum = 0 (at node 0)
	maximum = 0.159 (at node 3)
Injected packet length average = 1
Accepted packet length average = 1
Total in-flight flits = 1 (1 measured)
latency change    = 0.0243196
throughput change = 0.0188679
Class 0:
Packet latency average = 22.4242
	minimum = 7
	maximum = 41
Network latency average = 22.4242
	minimum = 7
	maximum = 41
Slowest packet = 7440
Flit latency average = 22.5149
	minimum = 7
	maximum = 41
Slowest flit = 7440
Fragmentation average = 0
	minimum = 0
	maximum = 0
Injected packet rate average = 0.00983333
	minimum = 0.006 (at node 1)
	maximum = 0.0133333 (at node 0)
Accepted packet rate average = 0.00979167
	minimum = 0 (at node 0)
	maximum = 0.156667 (at node 3)
Injected flit rate average = 0.00983333
	minimum = 0.006 (at node 1)
	maximum = 0.0133333 (at node 0)
Accepted flit rate average= 0.00979167
	minimum = 0 (at node 0)
	maximum = 0.156667 (at node 3)
Injected packet length average = 1
Accepted packet length average = 1
[...]
	maximum = 0.15 (at node 3)
Injected packet length average = 1
Accepted packet length average = 1
Total in-flight flits = 5 (0 measured)
latency change    = 0.000419913
throughput change = 0.0933333
Class 0:
Packet latency average = 21.1463
	minimum = 7
	maximum = 38
Network latency average = 21.1463
	minimum = 7
	maximum = 38
Slowest packet = 31359
Flit latency average = 21.1463
	minimum = 7
	maximum = 38
Slowest flit = 31359
Fragmentation average = 0
	minimum = 0
	maximum = 0
Injected packet rate average = 0.010125
	minimum = 0.002 (at node 8)
	maximum = 0.018 (at node 2)
Accepted packet rate average = 0.01025
	minimum = 0 (at node 0)
	maximum = 0.164 (at node 3)
Injected flit rate average = 0.010125
	minimum = 0.002 (at node 8)
	maximum = 0.018 (at node 2)
Accepted flit rate average= 0.01025
	minimum = 0 (at node 0)
	maximum = 0.164 (at node 3)
Injected packet length average = 1
Accepted packet length average = 1
Total in-flight flits = 4 (0 measured)
latency change    = 0.037847
throughput change = 0.0853659
Warmed up ...Time used is 1500 cycles
Class 0:
Packet latency average = 22.8608
	minimum = 7
	maximum = 38
Network latency average = 22.8608
	minimum = 7
	maximum = 38
Slowest packet = 31438
Flit latency average = 23.0723
	minimum = 7
	maximum = 38
Slowest flit = 31438
Fragmentation average = 0
	minimum = 0
	maximum = 0
Injected packet rate average = 0.0105
	minimum = 0.002 (at node 1)
	maximum = 0.02 (at node 12)
Accepted packet rate average = 0.010375
	minimum = 0 (at node 0)
	maximum = 0.166 (at node 3)
Injected flit rate average = 0.0105
	minimum = 0.002 (at node 1)
	maximum = 0.02 (at node 12)
Accepted flit rate average= 0.010375
	minimum = 0 (at node 0)
	maximum = 0.166 (at node 3)
Injected packet length average = 1
Accepted packet length average = 1
Total in-flight flits = 5 (5 measured)
latency change    = 0.0749939
throughput change = 0.0120482
Class 0:
Packet latency average = 22.2308
	minimum = 7
	maximum = 38
Network latency average = 22.2308
	minimum = 7
	maximum = 38
Slowest packet = 31438
Flit latency average = 22.3562
	minimum = 7
	maximum = 38
Slowest flit = 31438
Fragmentation average = 0
	minimum = 0
	maximum = 0
Injected packet rate average = 0.0099375
	minimum = 0.005 (at node 7)
	maximum = 0.016 (at node 12)
Accepted packet rate average = 0.01
	minimum = 0 (at node 0)
	maximum = 0.16 (at node 3)
Injected flit rate average = 0.0099375
	minimum = 0.005 (at node 7)
	maximum = 0.016 (at node 12)
Accepted flit rate average= 0.01
	minimum = 0 (at node 0)
	maximum = 0.16 (at node 3)
Injected packet length average = 1
Accepted packet length average = 1
Total in-flight flits = 3 (3 measured)
latency change    = 0.0283387
throughput change = 0.0375
Class 0:
Packet latency average = 22.5
	minimum = 7
	maximum = 38
Network latency average = 22.5
	minimum = 7
	maximum = 38
Slowest packet = 31438
Flit latency average = 22.5819
	minimum = 7
	maximum = 38
Slowest flit = 31438
Fragmentation average = 0
	minimum = 0
	maximum = 0
Injected packet rate average = 0.00966667
	minimum = 0.006 (at node 5)
	maximum = 0.0153333 (at node 11)
Accepted packet rate average = 0.00966667
	minimum = 0 (at node 0)
	maximum = 0.154667 (at node 3)
Injected flit rate average = 0.00966667
	minimum = 0.006 (at node 5)
	maximum = 0.0153333 (at node 11)
Accepted flit rate average= 0.00966667
	minimum = 0 (at node 0)
	maximum = 0.154667 (at node 3)
Injected packet length average = 1
Accepted packet length average = 1
Total in-flight flits = 4 (4 measured)
latency change    = 0.0119658
throughput change = 0.0344828
Class 0:
Packet latency average = 22.4351
	minimum = 7
	maximum = 38
Network latency average = 22.4351
	minimum = 7
	maximum = 38
Slowest packet = 31438
Flit latency average = 22.4968
	minimum = 7
	maximum = 38
Slowest flit = 31438
Fragmentation average = 0
	minimum = 0
	maximum = 0
Injected packet rate average = 0.0096875
	minimum = 0.0065 (at node 8)
	maximum = 0.0135 (at node 12)
Accepted packet rate average = 0.00975
	minimum = 0 (at node 0)
	maximum = 0.156 (at node 3)
Injected flit rate average = 0.0096875
	minimum = 0.0065 (at node 8)
	maximum = 0.0135 (at node 12)
Accepted flit rate average= 0.00975
	minimum = 0 (at node 0)
	maximum = 0.156 (at node 3)
Injected packet length average = 1
Accepted packet length average = 1
Total in-flight flits = 2 (2 measured)
latency change    = 0.00289436
throughput change = 0.00854701
Draining all recorded packets ...
Draining remaining packets ...
Time taken is 3553 cycles
Class 0:
Packet latency average = 21.0704
	minimum = 7
	maximum = 37
Network latency average = 21.0704
	minimum = 7
	maximum = 37
Slowest packet = 31730
Flit latency average = 21.0704
	minimum = 7
	maximum = 37
Slowest flit = 31730
Fragmentation average = 0
	minimum = 0
	maximum = 0
Injected packet rate average = 0.009125
	minimum = 0.004 (at node 5)
	maximum = 0.018 (at node 15)
Accepted packet rate average = 0.008875
	minimum = 0 (at node 0)
	maximum = 0.142 (at node 3)
Injected flit rate average = 0.009125
	minimum = 0.004 (at node 5)
	maximum = 0.018 (at node 15)
Accepted flit rate average= 0.008875
	minimum = 0 (at node 0)
	maximum = 0.142 (at node 3)
Injected packet length average = 1
Accepted packet length average = 1
Total in-flight flits = 2 (0 measured)
latency change    = 1
throughput change = 1
Class 0:
Packet latency average = 21.4845
	minimum = 7
	maximum = 42
Network latency average = 21.4845
	minimum = 7
	maximum = 42
Slowest packet = 31811
Flit latency average = 21.4845
	minimum = 7
	maximum = 42
Slowest flit = 31811
Fragmentation average = 0
	minimum = 0
	maximum = 0
Injected packet rate average = 0.01025
	minimum = 0.004 (at node 5)
	maximum = 0.015 (at node 3)
Accepted packet rate average = 0.0100625
	minimum = 0 (at node 0)
	maximum = 0.161 (at node 3)
Injected flit rate average = 0.01025
	minimum = 0.004 (at node 5)
	maximum = 0.015 (at node 3)
Accepted flit rate average= 0.0100625
	minimum = 0 (at node 0)
	maximum = 0.161 (at node 3)
Injected packet length average = 1
Accepted packet length average = 1
Total in-flight flits = 3 (0 measured)
latency change    = 0.019272
throughput change = 0.118012
Class 0:
Packet latency average = 21.2593
	minimum = 7
	maximum = 37
Network latency average = 21.2593
	minimum = 7
	maximum = 37
Slowest packet = 31885
Flit latency average = 21.2593
	minimum = 7
	maximum = 37
Slowest flit = 31885
Fragmentation average = 0
	minimum = 0
	maximum = 0
Injected packet rate average = 0.0105
	minimum = 0.002 (at node 8)
	maximum = 0.02 (at node 2)
Accepted packet rate average = 0.010125
	minimum = 0 (at node 0)
	maximum = 0.162 (at node 3)
Injected flit rate average = 0.0105
	minimum = 0.002 (at node 8)
	maximum = 0.02 (at node 2)
Accepted flit rate average= 0.010125
	minimum = 0 (at node 0)
	maximum = 0.162 (at node 3)
Injected packet length average = 1
Accepted packet length average = 1
Total in-flight flits = 6 (0 measured)
latency change    = 0.0105936
throughput change = 0.00617284
Warmed up ...Time used is 1500 cycles
Class 0:
Packet latency average = 21.3651
	minimum = 7
	maximum = 38
Network latency average = 21.3651
	minimum = 7
	maximum = 38
Slowest packet = 31959
Flit latency average = 21.3478
	minimum = 7
	maximum = 38
Slowest flit = 31959
Fragmentation average = 0
	minimum = 0
	maximum = 0
Injected packet rate average = 0.008125
	minimum = 0.002 (at node 1)
	maximum = 0.016 (at node 3)
Accepted packet rate average = 0.008625
	minimum = 0 (at node 0)
	maximum = 0.138 (at node 3)
Injected flit rate average = 0.008125
	minimum = 0.002 (at node 1)
	maximum = 0.016 (at node 3)
Accepted flit rate average= 0.008625
	minimum = 0 (at node 0)
	maximum = 0.138 (at node 3)
Injected packet length average = 1
Accepted packet length average = 1
Total in-flight flits = 2 (2 measured)
latency change    = 0.00495295
throughput change = 0.173913
Class 0:
Packet latency average = 21.8868
	minimum = 7
	maximum = 40
Network latency average = 21.8868
	minimum = 7
	maximum = 40
Slowest packet = 32094
Flit latency average = 21.8606
	minimum = 7
	maximum = 40
Slowest flit = 32094
Fragmentation average = 0
	minimum = 0
	maximum = 0
Injected packet rate average = 0.01
	minimum = 0.006 (at node 1)
	maximum = 0.015 (at node 3)
Accepted packet rate average = 0.0103125
	minimum = 0 (at node 0)
	maximum = 0.165 (at node 3)
Injected flit rate average = 0.01
	minimum = 0.006 (at node 1)
	maximum = 0.015 (at node 3)
Accepted flit rate average= 0.0103125
	minimum = 0 (at node 0)
	maximum = 0.165 (at node 3)
Injected packet length average = 1
Accepted packet length average = 1
Total in-flight flits = 1 (1 measured)
latency change    = 0.0238369
throughput change = 0.163636
Class 0:
Packet latency average = 21.9079
	minimum = 7
	maximum = 40
Network latency average = 21.9079
	minimum = 7
	maximum = 40
Slowest packet = 32094
Flit latency average = 21.8898
	minimum = 7
	maximum = 40
Slowest flit = 32094
Fragmentation average = 0
	minimum = 0
	maximum = 0
Injected packet rate average = 0.0100833
	minimum = 0.006 (at node 5)
	maximum = 0.014 (at node 3)
Accepted packet rate average = 0.0102083
	minimum = 0 (at node 0)
	maximum = 0.163333 (at node 3)
Injected flit rate average = 0.0100833
	minimum = 0.006 (at node 5)
	maximum = 0.014 (at node 3)
Accepted flit rate average= 0.0102083
	minimum = 0 (at node 0)
	maximum = 0.163333 (at node 3)
Injected packet length average = 1
Accepted packet length average = 1
Total in-flight flits = 3 (3 measured)
latency change    = 0.000965738
throughput change = 0.0102041
Class 0:
Packet latency average = 21.731
	minimum = 7
	maximum = 40
Network latency average = 21.731
	minimum = 7
	maximum = 40
Slowest packet = 32094
Flit latency average = 21.7205
	minimum = 7
	maximum = 40
Slowest flit = 32094
Fragmentation average = 0
	minimum = 0
	maximum = 0
Injected packet rate average = 0.01
	minimum = 0.006 (at node 5)
	maximum = 0.0145 (at node 15)
Accepted packet rate average = 0.0100625
	minimum = 0 (at node 0)
	maximum = 0.161 (at node 3)
Injected flit rate average = 0.01
	minimum = 0.006 (at node 5)
	maximum = 0.0145 (at node 15)
Accepted flit rate average= 0.0100625
	minimum = 0 (at node 0)
	maximum = 0.161 (at node 3)
Injected packet length average = 1
Accepted packet length average = 1
Total in-flight flits = 4 (4 measured)
latency change    = 0.00814215
throughput change = 0.0144928
Class 0:
Packet latency average = 21.6718
	minimum = 7
	maximum = 40
Network latency average = 21.6718
	minimum = 7
	maximum = 40
Slowest packet = 32094
Flit latency average = 21.6642
	minimum = 7
	maximum = 40
Slowest flit = 32094
Fragmentation average = 0
	minimum = 0
	maximum = 0
Injected packet rate average = 0.0099
	minimum = 0.0064 (at node 5)
	maximum = 0.0144 (at node 15)
Accepted packet rate average = 0.009975
	minimum = 0 (at node 0)
	maximum = 0.1596 (at node 3)
Injected flit rate average = 0.0099
	minimum = 0.0064 (at node 5)
	maximum = 0.0144 (at node 15)
Accepted flit rate average= 0.009975
	minimum = 0 (at node 0)
	maximum = 0.1596 (at node 3)
Injected packet length average = 1
Accepted packet length average = 1
Total in-flight flits = 3 (3 measured)
latency change    = 0.00273429
throughput change = 0.00877193
Draining all recorded packets ...
Draining remaining packets ...
Time taken is 4050 cycles
Class 0:
Packet latency average = 23.0667
	minimum = 7
	maximum = 37
Network latency average = 23.0667
	minimum = 7
	maximum = 37
Slowest packet = 32366
Flit latency average = 23.0667
	minimum = 7
	maximum = 37
Slowest flit = 32366
Fragmentation average = 0
	minimum = 0
	maximum = 0
Injected packet rate average = 0.011625
	minimum = 0.004 (at node 6)
	maximum = 0.02 (at node 14)
Accepted packet rate average = 0.01125
	minimum = 0 (at node 0)
	maximum = 0.18 (at node 3)
Injected flit rate average = 0.011625
	minimum = 0.004 (at node 6)
	maximum = 0.02 (at node 14)
Accepted flit rate average= 0.01125
	minimum = 0 (at node 0)
	maximum = 0.18 (at node 3)
Injected packet length average = 1
Accepted packet length average = 1
Total in-flight flits = 3 (0 measured)
latency change    = 1
throughput change = 1
Class 0:
Packet latency average = 22.5111
	minimum = 7
	maximum = 38
Network latency average = 22.5111
	minimum = 7
	maximum = 38
Slowest packet = 32507
Flit latency average = 22.5111
	minimum = 7
	maximum = 38
Slowest flit = 32507
Fragmentation average = 0
	minimum = 0
	maximum = 0
Injected packet rate average = 0.011375
	minimum = 0.007 (at node 0)
	maximum = 0.018 (at node 8)
Accepted packet rate average = 0.01125
	minimum = 0 (at node 0)
	maximum = 0.18 (at node 3)
Injected flit rate average = 0.011375
	minimum = 0.007 (at node 0)
	maximum = 0.018 (at node 8)
Accepted flit rate average= 0.01125
	minimum = 0 (at node 0)
	maximum = 0.18 (at node 3)
Injected packet length average = 1
Accepted packet length average = 1
Total in-flight flits = 2 (0 measured)
latency change    = 0.0246792
throughput change = 0
Class 0:
Packet latency average = 22.8941
	minimum = 7
	maximum = 37
Network latency average = 22.8941
	minimum = 7
	maximum = 37
Slowest packet = 32535
Flit latency average = 22.8941
	minimum = 7
	maximum = 37
Slowest flit = 32535
Fragmentation average = 0
	minimum = 0
	maximum = 0
Injected packet rate average = 0.010875
	minimum = 0.004 (at node 6)
	maximum = 0.022 (at node 2)
Accepted packet rate average = 0.010625
	minimum = 0 (at node 0)
	maximum = 0.17 (at node 3)
Injected flit rate average = 0.010875
	minimum = 0.004 (at node 6)
	maximum = 0.022 (at node 2)
Accepted flit rate average= 0.010625
	minimum = 0 (at node 0)
	maximum = 0.17 (at node 3)
Injected packet length average = 1
Accepted packet length average = 1
Total in-flight flits = 4 (0 measured)
latency change    = 0.0167295
throughput change = 0.0588235
Warmed up ...Time used is 1500 cycles
Class 0:
Packet latency average = 21.6883
	minimum = 7
	maximum = 38
Network latency average = 21.6883
	minimum = 7
	maximum = 38
Slowest packet = 32652
Flit latency average = 22.0123
	minimum = 7
	maximum = 38
Slowest flit = 32652
Fragmentation average = 0
	minimum = 0
	maximum = 0
Injected packet rate average = 0.01
	minimum = 0.004 (at node 2)
	maximum = 0.02 (at node 0)
Accepted packet rate average = 0.010125
	minimum = 0 (at node 0)
	maximum = 0.162 (at node 3)
Injected flit rate average = 0.01
	minimum = 0.004 (at node 2)
	maximum = 0.02 (at node 0)
Accepted flit rate average= 0.010125
	minimum = 0 (at node 0)
	maximum = 0.162 (at node 3)
Injected packet length average = 1
Accepted packet length average = 1
Total in-flight flits = 3 (3 measured)
latency change    = 0.055597
throughput change = 0.0493827
Class 0:
Packet latency average = 21.0686
	minimum = 7
	maximum = 38
Network latency average = 21.0686
	minimum = 7
	maximum = 38
Slowest packet = 32652
Flit latency average = 21.2291
	minimum = 7
	maximum = 38
Slowest flit = 32652
Fragmentation average = 0
	minimum = 0
	maximum = 0
Injected packet rate average = 0.0109375
	minimum = 0.006 (at node 4)
	maximum = 0.016 (at node 3)
Accepted packet rate average = 0.0111875
	minimum = 0 (at node 0)
	maximum = 0.179 (at node 3)
Injected flit rate average = 0.0109375
	minimum = 0.006 (at node 4)
	maximum = 0.016 (at node 3)
Accepted flit rate average= 0.0111875
	minimum = 0 (at node 0)
	maximum = 0.179 (at node 3)
Injected packet length average = 1
Accepted packet length average = 1
Total in-flight flits = 0 (0 measured)
latency change    = 0.0294154
throughput change = 0.0949721
Class 0:
Packet latency average = 21.1727
	minimum = 7
	maximum = 38
Network latency average = 21.1727
	minimum = 7
	maximum = 38
Slowest packet = 32652
Flit latency average = 21.2846
	minimum = 7
	maximum = 38
Slowest flit = 32652
Fragmentation average = 0
	minimum = 0
	maximum = 0
Injected packet rate average = 0.0104583
	minimum = 0.00466667 (at node 4)
	maximum = 0.0153333 (at node 3)
Accepted packet rate average = 0.0105417
	minimum = 0 (at node 0)
	maximum = 0.168667 (at node 3)
Injected flit rate average = 0.0104583
	minimum = 0.00466667 (at node 4)
	maximum = 0.0153333 (at node 3)
Accepted flit rate average= 0.0105417
	minimum = 0 (at node 0)
	maximum = 0.168667 (at node 3)
Injected packet length average = 1
Accepted packet length average = 1
Total in-flight flits = 2 (2 measured)
latency change    = 0.00491762
throughput change = 0.0612648
Class 0:
Packet latency average = 21.1057
	minimum = 7
	maximum = 38
Network latency average = 21.1057
	minimum = 7
	maximum = 38
Slowest packet = 32652
Flit latency average = 21.191
	minimum = 7
	maximum = 38
Slowest flit = 32652
Fragmentation average = 0
	minimum = 0
	maximum = 0
Injected packet rate average = 0.0104688
	minimum = 0.006 (at node 13)
	maximum = 0.0155 (at node 3)
Accepted packet rate average = 0.0104688
	minimum = 0 (at node 0)
	maximum = 0.1675 (at node 3)
Injected flit rate average = 0.0104688
	minimum = 0.006 (at node 13)
	maximum = 0.0155 (at node 3)
Accepted flit rate average= 0.0104688
	minimum = 0 (at node 0)
	maximum = 0.1675 (at node 3)
Injected packet length average = 1
Accepted packet length average = 1
Total in-flight flits = 4 (4 measured)
latency change    = 0.00317215
throughput change = 0.00696517
Class 0:
Packet latency average = 21.3382
	minimum = 7
	maximum = 38
Network latency average = 21.3382
	minimum = 7
	maximum = 38
Slowest packet = 32652
Flit latency average = 21.4048
	minimum = 7
	maximum = 38
Slowest flit = 32652
Fragmentation average = 0
	minimum = 0
	maximum = 0
Injected packet rate average = 0.010275
	minimum = 0.006 (at node 13)
	maximum = 0.0144 (at node 10)
Accepted packet rate average = 0.010375
	minimum = 0 (at node 0)
	maximum = 0.166 (at node 3)
Injected flit rate average = 0.010275
	minimum = 0.006 (at node 13)
	maximum = 0.0144 (at node 10)
Accepted flit rate average= 0.010375
	minimum = 0 (at node 0)
	maximum = 0.166 (at node 3)
Injected packet length average = 1
Accepted packet length average = 1
Total in-flight flits = 0 (0 measured)
latency change    = 0.010894
throughput change = 0.00903614
Class 0:
Packet latency average = 21.4194
	minimum = 7
	maximum = 39
Network latency average = 21.4194
	minimum = 7
	maximum = 39
Slowest packet = 33084
Flit latency average = 21.4754
	minimum = 7
	maximum = 39
Slowest flit = 33084
Fragmentation average = 0
	minimum = 0
	maximum = 0
Injected packet rate average = 0.0100833
	minimum = 0.00633333 (at node 4)
	maximum = 0.014 (at node 10)
Accepted packet rate average = 0.0101667
	minimum = 0 (at node 0)
	maximum = 0.162667 (at node 3)
Injected flit rate average = 0.0100833
	minimum = 0.00633333 (at node 4)
	maximum = 0.014 (at node 10)
Accepted flit rate average= 0.0101667
	minimum = 0 (at node 0)
	maximum = 0.162667 (at node 3)
Injected packet length average = 1
Accepted packet length average = 1
Total in-flight flits = 0 (0 measured)
latency change    = 0.00379198
throughput change = 0.0204918
Draining all recorded packets ...
Draining remaining packets ...
Time taken is 4501 cycles
====== Overall Traffic Statistics ======
====== Traffic class 0 ======
Packet latency average = 22.1771 (50 samples)
	minimum = 7 (50 samples)
	maximum = 40.02 (50 samples)
Network latency average = 22.1771 (50 samples)
	minimum = 7 (50 samples)
	maximum = 40.02 (50 samples)
Flit latency average = 22.2035 (50 samples)
	minimum = 7 (50 samples)
	maximum = 40.06 (50 samples)
Fragmentation average = 0 (50 samples)
	minimum = 0 (50 samples)
	maximum = 0 (50 samples)
Injected packet rate average = 0.0100036 (50 samples)
	minimum = 0.00664467 (50 samples)
	maximum = 0.0135342 (50 samples)
Accepted packet rate average = 0.010009 (50 samples)
	minimum = 0 (50 samples)
	maximum = 0.160145 (50 samples)
Injected flit rate average = 0.0100036 (50 samples)
	minimum = 0.00664467 (50 samples)
	maximum = 0.0135342 (50 samples)
Accepted flit rate average = 0.010009 (50 samples)
	minimum = 0 (50 samples)
	maximum = 0.160145 (50 samples)
Injected packet size average = 1 (50 samples)
Accepted packet size average = 1 (50 samples)
Hops average = 3.9997 (50 samples)
Total run time 4.59577
