BEGIN Configuration File: /tmp/tmp2i58w3ru.cfg
topology = mesh;
k = 4;
n = 2;
routing_function = planar_adapt;
num_vcs = 4;
vc_buf_size = 4;
wait_for_tail_credit = 1;
vc_allocator = islip;
sw_allocator = islip;
alloc_iters = 1;
credit_delay = 2;
routing_delay = 1;
vc_alloc_delay = 1;
sw_alloc_delay = 1;
input_speedup = 2;
output_speedup = 1;
internal_speedup = 1.0;
traffic = uniform;
packet_size = 1;
sim_type = latency;
injection_rate = 0.05;
warmup_periods = 3;
sample_period = 500;
sim_count = 50;
seed = 2;
link_failures = 0;
fail_seed = 202;

END Configuration File: /tmp/tmp2i58w3ru.cfg
Class 0:
Packet latency average = 20.5387
	minimum = 7
	maximum = 44
Network latency average = 20.5387
	minimum = 7
	maximum = 44
Slowest packet = 32
Flit latency average = 20.5387
	minimum = 7
	maximum = 44
Slowest flit = 32
Fragmentation average = 0
	minimum = 0
	maximum = 0
Injected packet rate average = 0.048875
	minimum = 0.03 (at node 5)
	maximum = 0.068 (at node 10)
Accepted packet rate average = 0.046875
	minimum = 0.036 (at node 12)
	maximum = 0.068 (at node 9)
Injected flit rate average = 0.048875
	minimum = 0.03 (at node 5)
	maximum = 0.068 (at node 10)
Accepted flit rate average= 0.046875
	minimum = 0.036 (at node 12)
	maximum = 0.068 (at node 9)
Injected packet length average = 1
Accepted packet length average = 1
Total in-flight flits = 16 (0 measured)
latency change    = 1
throughput change = 1
Class 0:
Packet latency average = 20.6554
	minimum = 7
	maximum = 44
Network latency average = 20.6554
	minimum = 7
	maximum = 44
Slowest packet = 32
Flit latency average = 20.6554
	minimum = 7
	maximum = 44
Slowest flit = 32
Fragmentation average = 0
	minimum = 0
	maximum = 0
Injected packet rate average = 0.04975
	minimum = 0.035 (at node 8)
	maximum = 0.064 (at node 10)
Accepted packet rate average = 0.04825
	minimum = 0.038 (at node 2)
	maximum = 0.059 (at node 10)
Injected flit rate average = 0.04975
	minimum = 0.035 (at node 8)
	maximum = 0.064 (at node 10)
Accepted flit rate average= 0.04825
	minimum = 0.038 (at node 2)
	maximum = 0.059 (at node 10)
Injected packet length average = 1
Accepted packet length average = 1
Total in-flight flits = 24 (0 measured)
latency change    = 0.00565341
throughput change = 0.0284974
Class 0:
Packet latency average = 20.717
	minimum = 7
	maximum = 43
Network latency average = 20.717
	minimum = 7
	maximum = 43
Slowest packet = 1007
Flit latency average = 20.717
	minimum = 7
	maximum = 43
Slowest flit = 1007
Fragmentation average = 0
	minimum = 0
	maximum = 0
Injected packet rate average = 0.04475
	minimum = 0.026 (at node 1)
	maximum = 0.06 (at node 10)
Accepted packet rate average = 0.046375
	minimum = 0.02 (at node 11)
	maximum = 0.062 (at node 0)
Injected flit rate average = 0.04475
	minimum = 0.026 (at node 1)
	maximum = 0.06 (at node 10)
Accepted flit rate average= 0.046375
	minimum = 0.02 (at node 11)
	maximum = 0.062 (at node 0)
Injected packet length average = 1
Accepted packet length average = 1
Total in-flight flits = 11 (0 measured)
latency change    = 0.00297054
throughput change = 0.0404313
Warmed up ...Time used is 1500 cycles
Class 0:
Packet latency average = 19.8867
	minimum = 7
	maximum = 48
Network latency average = 19.8867
	minimum = 7
	maximum = 48
Slowest packet = 1388
Flit latency average = 19.9531
	minimum = 7
	maximum = 48
Slowest flit = 1388
Fragmentation average = 0
	minimum = 0
	maximum = 0
Injected packet rate average = 0.05375
	minimum = 0.038 (at node 15)
	maximum = 0.08 (at node 10)
Accepted packet rate average = 0.05325
	minimum = 0.03 (at node 4)
	maximum = 0.078 (at node 5)
Injected flit rate average = 0.05375
	minimum = 0.038 (at node 15)
	maximum = 0.08 (at node 10)
Accepted flit rate average= 0.05325
	minimum = 0.03 (at node 4)
	maximum = 0.078 (at node 5)
Injected packet length average = 1
Accepted packet length average = 1
Total in-flight flits = 15 (15 measured)
latency change    = 0.0417481
throughput change = 0.129108
Class 0:
Packet latency average = 19.7119
	minimum = 7
	maximum = 48
Network latency average = 19.7119
	minimum = 7
	maximum = 48
Slowest packet = 1388
Flit latency average = 19.7497
	minimum = 7
	maximum = 48
Slowest flit = 1388
Fragmentation average = 0
	minimum = 0
	maximum = 0
Injected packet rate average = 0.050125
	minimum = 0.032 (at node 15)
	maximum = 0.07 (at node 10)
Accepted packet rate average = 0.0499375
	minimum = 0.04 (at node 9)
	maximum = 0.061 (at node 5)
Injected flit rate average = 0.050125
	minimum = 0.032 (at node 15)
	maximum = 0.07 (at node 10)
Accepted flit rate average= 0.0499375
	minimum = 0.04 (at node 9)
	maximum = 0.061 (at node 5)
Injected packet length average = 1
Accepted packet length average = 1
Total in-flight flits = 14 (14 measured)
latency change    = 0.00886864
throughput change = 0.0663329
Class 0:
Packet latency average = 20.0119
	minimum = 7
	maximum = 48
Network latency average = 20.0119
	minimum = 7
	maximum = 48
Slowest packet = 1388
Flit latency average = 20.0346
	minimum = 7
	maximum = 48
Slowest flit = 1388
Fragmentation average = 0
	minimum = 0
	maximum = 0
Injected packet rate average = 0.049625
	minimum = 0.0393333 (at node 15)
	maximum = 0.066 (at node 10)
Accepted packet rate average = 0.0493333
	minimum = 0.042 (at node 9)
	maximum = 0.058 (at node 8)
Injected flit rate average = 0.049625
	minimum = 0.0393333 (at node 15)
	maximum = 0.066 (at node 10)
Accepted flit rate average= 0.0493333
	minimum = 0.042 (at node 9)
	maximum = 0.058 (at node 8)
Injected packet length average = 1
Accepted packet length average = 1
Total in-flight flits = 18 (18 measured)
latency change    = 0.0149914
throughput change = 0.0122466
Class 0:
Packet latency average = 19.955
	minimum = 7
	maximum = 48
Network latency average = 19.955
	minimum = 7
	maximum = 48
Slowest packet = 1388
Flit latency average = 19.9721
	minimum = 7
	maximum = 48
Slowest flit = 1388
Fragmentation average = 0
	minimum = 0
	maximum = 0
Injected packet rate average = 0.0506562
	minimum = 0.0425 (at node 1)
	maximum = 0.0695 (at node 10)
Accepted packet rate average = 0.050375
	minimum = 0.042 (at node 9)
	maximum = 0.058 (at node 8)
Injected flit rate average = 0.0506562
	minimum = 0.0425 (at node 1)
	maximum = 0.0695 (at node 10)
Accepted flit rate average= 0.050375
	minimum = 0.042 (at node 9)
	maximum = 0.058 (at node 8)
Injected packet length average = 1
Accepted packet length average = 1
Total in-flight flits = 20 (20 measured)
latency change    = 0.00285177
throughput change = 0.0206782
Class 0:
Packet latency average = 19.9499
	minimum = 7
	maximum = 48
Network latency average = 19.9499
	minimum = 7
	maximum = 48
Slowest packet = 1388
Flit latency average = 19.9633
	minimum = 7
	maximum = 48
Slowest flit = 1388
Fragmentation average = 0
	minimum = 0
	maximum = 0
Injected packet rate average = 0.051225
	minimum = 0.0404 (at node 1)
	maximum = 0.0648 (at node 10)
Accepted packet rate average = 0.051125
	minimum = 0.042 (at node 9)
	maximum = 0.0592 (at node 15)
Injected flit rate average = 0.051225
	minimum = 0.0404 (at node 1)
	maximum = 0.0648 (at node 10)
Accepted flit rate average= 0.051125
	minimum = 0.042 (at node 9)
	maximum = 0.0592 (at node 15)
Injected packet length average = 1
Accepted packet length average = 1
Total in-flight flits = 15 (15 measured)
latency change    = 0.00025943
throughput change = 0.0146699
Draining all recorded packets ...
Draining remaining packets ...
Time taken is 4055 cycles
Class 0:
Packet latency average = 20.4495
	minimum = 7
	maximum = 46
Network latency average = 20.4495
	minimum = 7
	maximum = 46
Slowest packet = 3452
Flit latency average = 20.4495
	minimum = 7
	maximum = 46
Slowest flit = 3452
Fragmentation average = 0
	minimum = 0
	maximum = 0
Injected packet rate average = 0.05075
	minimum = 0.04 (at node 4)
	maximum = 0.062 (at node 0)
Accepted packet rate average = 0.0495
	minimum = 0.03 (at node 12)
	maximum = 0.068 (at node 2)
Injected flit rate average = 0.05075
	minimum = 0.04 (at node 4)
	maximum = 0.062 (at node 0)
Accepted flit rate average= 0.0495
	minimum = 0.03 (at node 12)
	maximum = 0.068 (at node 2)
Injected packet length average = 1
Accepted packet length average = 1
Total in-flight flits = 10 (0 measured)
latency change    = 1
throughput change = 1
Class 0:
Packet latency average = 20.2741
	minimum = 7
	maximum = 46
Network latency average = 20.2741
	minimum = 7
	maximum = 46
Slowest packet = 3452
Flit latency average = 20.2741
	minimum = 7
	maximum = 46
Slowest flit = 3452
Fragmentation average = 0
	minimum = 0
	maximum = 0
Injected packet rate average = 0.0519375
	minimum = 0.044 (at node 4)
	maximum = 0.063 (at node 8)
Accepted packet rate average = 0.050625
	minimum = 0.037 (at node 8)
	maximum = 0.064 (at node 2)
Injected flit rate average = 0.0519375
	minimum = 0.044 (at node 4)
	maximum = 0.063 (at node 8)
Accepted flit rate average= 0.050625
	minimum = 0.037 (at node 8)
	maximum = 0.064 (at node 2)
Injected packet length average = 1
Accepted packet length average = 1
Total in-flight flits = 21 (0 measured)
latency change    = 0.00865247
throughput change = 0.0222222
Class 0:
Packet latency average = 20.0591
	minimum = 7
	maximum = 52
Network latency average = 20.0591
	minimum = 7
	maximum = 52
Slowest packet = 4291
Flit latency average = 20.0591
	minimum = 7
	maximum = 52
Slowest flit = 4291
Fragmentation average = 0
	minimum = 0
	maximum = 0
Injected packet rate average = 0.054875
	minimum = 0.032 (at node 11)
	maximum = 0.074 (at node 4)
Accepted packet rate average = 0.055
	minimum = 0.034 (at node 14)
	maximum = 0.078 (at node 0)
Injected flit rate average = 0.054875
	minimum = 0.032 (at node 11)
	maximum = 0.074 (at node 4)
Accepted flit rate average= 0.055
	minimum = 0.034 (at node 14)
	maximum = 0.078 (at node 0)
Injected packet length average = 1
Accepted packet length average = 1
Total in-flight flits = 20 (0 measured)
latency change    = 0.0107175
throughput change = 0.0795455
Warmed up ...Time used is 1500 cycles
Class 0:
Packet latency average = 19.2997
	minimum = 7
	maximum = 41
Network latency average = 19.2997
	minimum = 7
	maximum = 41
Slowest packet = 4727
Flit latency average = 19.3592
	minimum = 7
	maximum = 41
Slowest flit = 4727
Fragmentation average = 0
	minimum = 0
	maximum = 0
Injected packet rate average = 0.0475
	minimum = 0.036 (at node 2)
	maximum = 0.064 (at node 13)
Accepted packet rate average = 0.048375
	minimum = 0.034 (at node 14)
	maximum = 0.072 (at node 0)
Injected flit rate average = 0.0475
	minimum = 0.036 (at node 2)
	maximum = 0.064 (at node 13)
Accepted flit rate average= 0.048375
	minimum = 0.034 (at node 14)
	maximum = 0.072 (at node 0)
Injected packet length average = 1
Accepted packet length average = 1
Total in-flight flits = 13 (13 measured)
latency change    = 0.0393458
throughput change = 0.136951
Class 0:
Packet latency average = 19.4622
	minimum = 7
	maximum = 41
Network latency average = 19.4572
	minimum = 7
	maximum = 41
Slowest packet = 4727
Flit latency average = 19.4816
	minimum = 7
	maximum = 41
Slowest flit = 4727
Fragmentation average = 0
	minimum = 0
	maximum = 0
Injected packet rate average = 0.05025
	minimum = 0.042 (at node 12)
	maximum = 0.062 (at node 5)
Accepted packet rate average = 0.050875
	minimum = 0.04 (at node 14)
	maximum = 0.065 (at node 0)
Injected flit rate average = 0.05025
	minimum = 0.042 (at node 12)
	maximum = 0.062 (at node 5)
Accepted flit rate average= 0.050875
	minimum = 0.04 (at node 14)
	maximum = 0.065 (at node 0)
Injected packet length average = 1
Accepted packet length average = 1
Total in-flight flits = 10 (10 measured)
latency change    = 0.00834895
throughput change = 0.04914
Class 0:
Packet latency average = 19.5624
	minimum = 7
	maximum = 41
Network latency average = 19.559
	minimum = 7
	maximum = 41
Slowest packet = 4727
Flit latency average = 19.5739
	minimum = 7
	maximum = 41
Slowest flit = 4727
Fragmentation average = 0
	minimum = 0
	maximum = 0
Injected packet rate average = 0.0494583
	minimum = 0.0426667 (at node 15)
	maximum = 0.0566667 (at node 3)
Accepted packet rate average = 0.0495833
	minimum = 0.038 (at node 14)
	maximum = 0.0573333 (at node 9)
Injected flit rate average = 0.0494583
	minimum = 0.0426667 (at node 15)
	maximum = 0.0566667 (at node 3)
Accepted flit rate average= 0.0495833
	minimum = 0.038 (at node 14)
	maximum = 0.0573333 (at node 9)
Injected packet length average = 1
Accepted packet length average = 1
Total in-flight flits = 17 (17 measured)
latency change    = 0.00512087
throughput change = 0.0260504
Class 0:
Packet latency average = 19.8294
	minimum = 7
	maximum = 47
Network latency average = 19.8269
	minimum = 7
	maximum = 47
Slowest packet = 5895
Flit latency average = 19.8347
	minimum = 7
	maximum = 47
Slowest flit = 5895
Fragmentation average = 0
	minimum = 0
	maximum = 0
Injected packet rate average = 0.0496562
	minimum = 0.0435 (at node 11)
	maximum = 0.06 (at node 5)
Accepted packet rate average = 0.0497187
	minimum = 0.0415 (at node 14)
	maximum = 0.056 (at node 0)
Injected flit rate average = 0.0496562
	minimum = 0.0435 (at node 11)
	maximum = 0.06 (at node 5)
Accepted flit rate average= 0.0497187
	minimum = 0.0415 (at node 14)
	maximum = 0.056 (at node 0)
Injected packet length average = 1
Accepted packet length average = 1
Total in-flight flits = 18 (18 measured)
latency change    = 0.0134656
throughput change = 0.00272365
Draining all recorded packets ...
Draining remaining packets ...
Time taken is 3557 cycles
Class 0:
Packet latency average = 20.0853
	minimum = 7
	maximum = 43
Network latency average = 20.0853
	minimum = 7
	maximum = 43
Slowest packet = 6339
Flit latency average = 20.0853
	minimum = 7
	maximum = 43
Slowest flit = 6339
Fragmentation average = 0
	minimum = 0
	maximum = 0
Injected packet rate average = 0.048375
	minimum = 0.024 (at node 9)
	maximum = 0.072 (at node 4)
Accepted packet rate average = 0.046875
	minimum = 0.034 (at node 3)
	maximum = 0.066 (at node 11)
Injected flit rate average = 0.048375
	minimum = 0.024 (at node 9)
	maximum = 0.072 (at node 4)
Accepted flit rate average= 0.046875
	minimum = 0.034 (at node 3)
	maximum = 0.066 (at node 11)
Injected packet length average = 1
Accepted packet length average = 1
Total in-flight flits = 12 (0 measured)
latency change    = 1
throughput change = 1
Class 0:
Packet latency average = 20.4125
	minimum = 7
	maximum = 51
Network latency average = 20.4125
	minimum = 7
	maximum = 51
Slowest packet = 6766
Flit latency average = 20.4125
	minimum = 7
	maximum = 51
Slowest flit = 6766
Fragmentation average = 0
	minimum = 0
	maximum = 0
Injected packet rate average = 0.0490625
	minimum = 0.034 (at node 9)
	maximum = 0.063 (at node 0)
Accepted packet rate average = 0.047875
	minimum = 0.039 (at node 2)
	maximum = 0.055 (at node 11)
Injected flit rate average = 0.0490625
	minimum = 0.034 (at node 9)
	maximum = 0.063 (at node 0)
Accepted flit rate average= 0.047875
	minimum = 0.039 (at node 2)
	maximum = 0.055 (at node 11)
Injected packet length average = 1
Accepted packet length average = 1
Total in-flight flits = 19 (0 measured)
latency change    = 0.0160293
throughput change = 0.0208877
Class 0:
Packet latency average = 21.256
	minimum = 7
	maximum = 49
Network latency average = 21.256
	minimum = 7
	maximum = 49
Slowest packet = 7169
Flit latency average = 21.256
	minimum = 7
	maximum = 49
Slowest flit = 7169
Fragmentation average = 0
	minimum = 0
	maximum = 0
Injected packet rate average = 0.0515
	minimum = 0.03 (at node 10)
	maximum = 0.074 (at node 15)
Accepted packet rate average = 0.05175
	minimum = 0.032 (at node 6)
	maximum = 0.076 (at node 4)
Injected flit rate average = 0.0515
	minimum = 0.03 (at node 10)
	maximum = 0.074 (at node 15)
Accepted flit rate average= 0.05175
	minimum = 0.032 (at node 6)
	maximum = 0.076 (at node 4)
Injected packet length average = 1
Accepted packet length average = 1
Total in-flight flits = 17 (0 measured)
latency change    = 0.0396831
throughput change = 0.0748792
Warmed up ...Time used is 1500 cycles
Class 0:
Packet latency average = 20.0864
	minimum = 7
	maximum = 40
Network latency average = 20.0864
	minimum = 7
	maximum = 40
Slowest packet = 7567
Flit latency average = 20.2406
	minimum = 7
	maximum = 40
Slowest flit = 7567
Fragmentation average = 0
	minimum = 0
	maximum = 0
Injected packet rate average = 0.049375
	minimum = 0.04 (at node 2)
	maximum = 0.07 (at node 8)
Accepted packet rate average = 0.049875
	minimum = 0.03 (at node 13)
	maximum = 0.068 (at node 2)
Injected flit rate average = 0.049375
	minimum = 0.04 (at node 2)
	maximum = 0.07 (at node 8)
Accepted flit rate average= 0.049875
	minimum = 0.03 (at node 13)
	maximum = 0.068 (at node 2)
Injected packet length average = 1
Accepted packet length average = 1
Total in-flight flits = 13 (13 measured)
latency change    = 0.058231
throughput change = 0.037594
Class 0:
Packet latency average = 19.9059
	minimum = 7
	maximum = 45
Network latency average = 19.9059
	minimum = 7
	maximum = 45
Slowest packet = 7780
Flit latency average = 19.9863
	minimum = 7
	maximum = 45
Slowest flit = 7780
Fragmentation average = 0
	minimum = 0
	maximum = 0
Injected packet rate average = 0.0499375
	minimum = 0.04 (at node 1)
	maximum = 0.062 (at node 14)
Accepted packet rate average = 0.0501875
	minimum = 0.038 (at node 7)
	maximum = 0.067 (at node 10)
Injected flit rate average = 0.0499375
	minimum = 0.04 (at node 1)
	maximum = 0.062 (at node 14)
Accepted flit rate average= 0.0501875
	minimum = 0.038 (at node 7)
	maximum = 0.067 (at node 10)
Injected packet length average = 1
Accepted packet length average = 1
Total in-flight flits = 13 (13 measured)
latency change    = 0.00906944
throughput change = 0.00622665
Class 0:
Packet latency average = 19.9818
	minimum = 7
	maximum = 46
Network latency average = 19.9818
	minimum = 7
	maximum = 46
Slowest packet = 8130
Flit latency average = 20.0335
	minimum = 7
	maximum = 46
Slowest flit = 8130
Fragmentation average = 0
	minimum = 0
	maximum = 0
Injected packet rate average = 0.051375
	minimum = 0.0413333 (at node 13)
	maximum = 0.062 (at node 0)
Accepted packet rate average = 0.0510417
	minimum = 0.0386667 (at node 7)
	maximum = 0.0646667 (at node 10)
Injected flit rate average = 0.051375
	minimum = 0.0413333 (at node 13)
	maximum = 0.062 (at node 0)
Accepted flit rate average= 0.0510417
	minimum = 0.0386667 (at node 7)
	maximum = 0.0646667 (at node 10)
Injected packet length average = 1
Accepted packet length average = 1
Total in-flight flits = 25 (25 measured)
latency change    = 0.00380024
throughput change = 0.0167347
Class 0:
Packet latency average = 19.7734
	minimum = 7
	maximum = 46
Network latency average = 19.7734
	minimum = 7
	maximum = 46
Slowest packet = 8130
Flit latency average = 19.8141
	minimum = 7
	maximum = 46
Slowest flit = 8130
Fragmentation average = 0
	minimum = 0
	maximum = 0
Injected packet rate average = 0.0512813
	minimum = 0.0455 (at node 3)
	maximum = 0.0575 (at node 8)
Accepted packet rate average = 0.0512813
	minimum = 0.0435 (at node 13)
	maximum = 0.062 (at node 10)
Injected flit rate average = 0.0512813
	minimum = 0.0455 (at node 3)
	maximum = 0.0575 (at node 8)
Accepted flit rate average= 0.0512813
	minimum = 0.0435 (at node 13)
	maximum = 0.062 (at node 10)
Injected packet length average = 1
Accepted packet length average = 1
Total in-flight flits = 17 (17 measured)
latency change    = 0.0105389
throughput change = 0.00467195
Draining all recorded packets ...
Draining remaining packets ...
Time taken is 3554 cycles
Class 0:
Packet latency average = 19.5812
	minimum = 7
	maximum = 39
Network latency average = 19.5812
	minimum = 7
	maximum = 39
Slowest packet = 9241
Flit latency average = 19.5812
	minimum = 7
	maximum = 39
Slowest flit = 9241
Fragmentation average = 0
	minimum = 0
	maximum = 0
Injected packet rate average = 0.04975
	minimum = 0.04 (at node 10)
	maximum = 0.06 (at node 14)
Accepted packet rate average = 0.04775
	minimum = 0.036 (at node 10)
	maximum = 0.062 (at node 15)
Injected flit rate average = 0.04975
	minimum = 0.04 (at node 10)
	maximum = 0.06 (at node 14)
Accepted flit rate average= 0.04775
	minimum = 0.036 (at node 10)
	maximum = 0.062 (at node 15)
Injected packet length average = 1
Accepted packet length average = 1
Total in-flight flits = 16 (0 measured)
latency change    = 1
throughput change = 1
Class 0:
Packet latency average = 19.8192
	minimum = 7
	maximum = 42
Network latency average = 19.8192
	minimum = 7
	maximum = 42
Slowest packet = 9369
Flit latency average = 19.8192
	minimum = 7
	maximum = 42
Slowest flit = 9369
Fragmentation average = 0
	minimum = 0
	maximum = 0
Injected packet rate average = 0.0493125
	minimum = 0.041 (at node 8)
	maximum = 0.059 (at node 14)
Accepted packet rate average = 0.04875
	minimum = 0.037 (at node 0)
	maximum = 0.057 (at node 4)
Injected flit rate average = 0.0493125
	minimum = 0.041 (at node 8)
	maximum = 0.059 (at node 14)
Accepted flit rate average= 0.04875
	minimum = 0.037 (at node 0)
	maximum = 0.057 (at node 4)
Injected packet length average = 1
Accepted packet length average = 1
Total in-flight flits = 9 (0 measured)
latency change    = 0.0120125
throughput change = 0.0205128
Class 0:
Packet latency average = 19.1684
	minimum = 7
	maximum = 45
Network latency average = 19.1684
	minimum = 7
	maximum = 45
Slowest packet = 10071
Flit latency average = 19.1684
	minimum = 7
	maximum = 45
Slowest flit = 10071
Fragmentation average = 0
	minimum = 0
	maximum = 0
Injected packet rate average = 0.048
	minimum = 0.034 (at node 10)
	maximum = 0.058 (at node 15)
Accepted packet rate average = 0.04675
	minimum = 0.03 (at node 0)
	maximum = 0.072 (at node 4)
Injected flit rate average = 0.048
	minimum = 0.034 (at node 10)
	maximum = 0.058 (at node 15)
Accepted flit rate average= 0.04675
	minimum = 0.03 (at node 0)
	maximum = 0.072 (at node 4)
Injected packet length average = 1
Accepted packet length average = 1
Total in-flight flits = 19 (0 measured)
latency change    = 0.0339507
throughput change = 0.0427807
Warmed up ...Time used is 1500 cycles
Class 0:
Packet latency average = 20.3245
	minimum = 7
	maximum = 40
Network latency average = 20.3245
	minimum = 7
	maximum = 40
Slowest packet = 10184
Flit latency average = 20.5678
	minimum = 7
	maximum = 43
Slowest flit = 10107
Fragmentation average = 0
	minimum = 0
	maximum = 0
Injected packet rate average = 0.049
	minimum = 0.032 (at node 6)
	maximum = 0.062 (at node 7)
Accepted packet rate average = 0.04975
	minimum = 0.038 (at node 12)
	maximum = 0.064 (at node 2)
Injected flit rate average = 0.049
	minimum = 0.032 (at node 6)
	maximum = 0.062 (at node 7)
Accepted flit rate average= 0.04975
	minimum = 0.038 (at node 12)
	maximum = 0.064 (at node 2)
Injected packet length average = 1
Accepted packet length average = 1
Total in-flight flits = 13 (13 measured)
latency change    = 0.0568814
throughput change = 0.0603015
Class 0:
Packet latency average = 20.078
	minimum = 7
	maximum = 48
Network latency average = 20.078
	minimum = 7
	maximum = 48
Slowest packet = 10651
Flit latency average = 20.2047
	minimum = 7
	maximum = 48
Slowest flit = 10651
Fragmentation average = 0
	minimum = 0
	maximum = 0
Injected packet rate average = 0.049625
	minimum = 0.039 (at node 3)
	maximum = 0.061 (at node 15)
Accepted packet rate average = 0.0500625
	minimum = 0.039 (at node 12)
	maximum = 0.066 (at node 2)
Injected flit rate average = 0.049625
	minimum = 0.039 (at node 3)
	maximum = 0.061 (at node 15)
Accepted flit rate average= 0.0500625
	minimum = 0.039 (at node 12)
	maximum = 0.066 (at node 2)
Injected packet length average = 1
Accepted packet length average = 1
Total in-flight flits = 12 (12 measured)
latency change    = 0.0122788
throughput change = 0.0062422
Class 0:
Packet latency average = 20.0162
	minimum = 7
	maximum = 48
Network latency average = 20.0162
	minimum = 7
	maximum = 48
Slowest packet = 10651
Flit latency average = 20.1024
	minimum = 7
	maximum = 48
Slowest flit = 10651
Fragmentation average = 0
	minimum = 0
	maximum = 0
Injected packet rate average = 0.049625
	minimum = 0.042 (at node 3)
	maximum = 0.0586667 (at node 15)
Accepted packet rate average = 0.049625
	minimum = 0.0413333 (at node 7)
	maximum = 0.062 (at node 2)
Injected flit rate average = 0.049625
	minimum = 0.042 (at node 3)
	maximum = 0.0586667 (at node 15)
Accepted flit rate average= 0.049625
	minimum = 0.0413333 (at node 7)
	maximum = 0.062 (at node 2)
Injected packet length average = 1
Accepted packet length average = 1
Total in-flight flits = 19 (19 measured)
latency change    = 0.00308717
throughput change = 0.00881612
Class 0:
Packet latency average = 19.937
	minimum = 7
	maximum = 48
Network latency average = 19.937
	minimum = 7
	maximum = 48
Slowest packet = 10651
Flit latency average = 20.0025
	minimum = 7
	maximum = 48
Slowest flit = 10651
Fragmentation average = 0
	minimum = 0
	maximum = 0
Injected packet rate average = 0.0496562
	minimum = 0.043 (at node 3)
	maximum = 0.0555 (at node 15)
Accepted packet rate average = 0.0496875
	minimum = 0.0395 (at node 4)
	maximum = 0.0615 (at node 2)
Injected flit rate average = 0.0496562
	minimum = 0.043 (at node 3)
	maximum = 0.0555 (at node 15)
Accepted flit rate average= 0.0496875
	minimum = 0.0395 (at node 4)
	maximum = 0.0615 (at node 2)
Injected packet length average = 1
Accepted packet length average = 1
Total in-flight flits = 18 (18 measured)
latency change    = 0.00397396
throughput change = 0.00125786
Draining all recorded packets ...
Draining remaining packets ...
Time taken is 3555 cycles
Class 0:
Packet latency average = 19.9768
	minimum = 7
	maximum = 44
Network latency average = 19.9768
	minimum = 7
	maximum = 44
Slowest packet = 12080
Flit latency average = 19.9768
	minimum = 7
	maximum = 44
Slowest flit = 12080
Fragmentation average = 0
	minimum = 0
	maximum = 0
Injected packet rate average = 0.05075
	minimum = 0.028 (at node 7)
	maximum = 0.068 (at node 11)
Accepted packet rate average = 0.0485
	minimum = 0.032 (at node 1)
	maximum = 0.076 (at node 15)
Injected flit rate average = 0.05075
	minimum = 0.028 (at node 7)
	maximum = 0.068 (at node 11)
Accepted flit rate average= 0.0485
	minimum = 0.032 (at node 1)
	maximum = 0.076 (at node 15)
Injected packet length average = 1
Accepted packet length average = 1
Total in-flight flits = 18 (0 measured)
latency change    = 1
throughput change = 1
Class 0:
Packet latency average = 19.6772
	minimum = 7
	maximum = 44
Network latency average = 19.6772
	minimum = 7
	maximum = 44
Slowest packet = 12080
Flit latency average = 19.6772
	minimum = 7
	maximum = 44
Slowest flit = 12080
Fragmentation average = 0
	minimum = 0
	maximum = 0
Injected packet rate average = 0.0503125
	minimum = 0.043 (at node 7)
	maximum = 0.057 (at node 15)
Accepted packet rate average = 0.0495625
	minimum = 0.036 (at node 1)
	maximum = 0.068 (at node 15)
Injected flit rate average = 0.0503125
	minimum = 0.043 (at node 7)
	maximum = 0.057 (at node 15)
Accepted flit rate average= 0.0495625
	minimum = 0.036 (at node 1)
	maximum = 0.068 (at node 15)
Injected packet length average = 1
Accepted packet length average = 1
Total in-flight flits = 12 (0 measured)
latency change    = 0.0152272
throughput change = 0.0214376
Class 0:
Packet latency average = 20.1393
	minimum = 7
	maximum = 41
Network latency average = 20.1393
	minimum = 7
	maximum = 41
Slowest packet = 12788
Flit latency average = 20.1393
	minimum = 7
	maximum = 41
Slowest flit = 12788
Fragmentation average = 0
	minimum = 0
	maximum = 0
Injected packet rate average = 0.05525
	minimum = 0.036 (at node 2)
	maximum = 0.072 (at node 8)
Accepted packet rate average = 0.05475
	minimum = 0.028 (at node 9)
	maximum = 0.086 (at node 13)
Injected flit rate average = 0.05525
	minimum = 0.036 (at node 2)
	maximum = 0.072 (at node 8)
Accepted flit rate average= 0.05475
	minimum = 0.028 (at node 9)
	maximum = 0.086 (at node 13)
Injected packet length average = 1
Accepted packet length average = 1
Total in-flight flits = 16 (0 measured)
latency change    = 0.0229449
throughput change = 0.0947489
Warmed up ...Time used is 1500 cycles
Class 0:
Packet latency average = 20.3089
	minimum = 7
	maximum = 43
Network latency average = 20.3089
	minimum = 7
	maximum = 43
Slowest packet = 13089
Flit latency average = 20.5091
	minimum = 7
	maximum = 43
Slowest flit = 13089
Fragmentation average = 0
	minimum = 0
	maximum = 0
Injected packet rate average = 0.04775
	minimum = 0.032 (at node 1)
	maximum = 0.064 (at node 8)
Accepted packet rate average = 0.048125
	minimum = 0.034 (at node 7)
	maximum = 0.066 (at node 14)
Injected flit rate average = 0.04775
	minimum = 0.032 (at node 1)
	maximum = 0.064 (at node 8)
Accepted flit rate average= 0.048125
	minimum = 0.034 (at node 7)
	maximum = 0.066 (at node 14)
Injected packet length average = 1
Accepted packet length average = 1
Total in-flight flits = 13 (13 measured)
latency change    = 0.00835463
throughput change = 0.137662
Class 0:
Packet latency average = 20.1302
	minimum = 7
	maximum = 53
Network latency average = 20.1302
	minimum = 7
	maximum = 53
Slowest packet = 13363
Flit latency average = 20.2352
	minimum = 7
	maximum = 53
Slowest flit = 13363
Fragmentation average = 0
	minimum = 0
	maximum = 0
Injected packet rate average = 0.047375
	minimum = 0.033 (at node 1)
	maximum = 0.067 (at node 8)
Accepted packet rate average = 0.0475625
	minimum = 0.038 (at node 2)
	maximum = 0.061 (at node 14)
Injected flit rate average = 0.047375
	minimum = 0.033 (at node 1)
	maximum = 0.067 (at node 8)
Accepted flit rate average= 0.0475625
	minimum = 0.038 (at node 2)
	maximum = 0.061 (at node 14)
Injected packet length average = 1
Accepted packet length average = 1
Total in-flight flits = 13 (13 measured)
latency change    = 0.00887928
throughput change = 0.0118265
Class 0:
Packet latency average = 19.9628
	minimum = 7
	maximum = 53
Network latency average = 19.9628
	minimum = 7
	maximum = 53
Slowest packet = 13363
Flit latency average = 20.035
	minimum = 7
	maximum = 53
Slowest flit = 13363
Fragmentation average = 0
	minimum = 0
	maximum = 0
Injected packet rate average = 0.0478333
	minimum = 0.0353333 (at node 1)
	maximum = 0.064 (at node 8)
Accepted packet rate average = 0.0476667
	minimum = 0.0386667 (at node 2)
	maximum = 0.0566667 (at node 11)
Injected flit rate average = 0.0478333
	minimum = 0.0353333 (at node 1)
	maximum = 0.064 (at node 8)
Accepted flit rate average= 0.0476667
	minimum = 0.0386667 (at node 2)
	maximum = 0.0566667 (at node 11)
Injected packet length average = 1
Accepted packet length average = 1
Total in-flight flits = 20 (20 measured)
latency change    = 0.00838738
throughput change = 0.00218531
Class 0:
Packet latency average = 19.8084
	minimum = 7
	maximum = 53
Network latency average = 19.8084
	minimum = 7
	maximum = 53
Slowest packet = 13363
Flit latency average = 19.8615
	minimum = 7
	maximum = 53
Slowest flit = 13363
Fragmentation average = 0
	minimum = 0
	maximum = 0
Injected packet rate average = 0.0499375
	minimum = 0.038 (at node 1)
	maximum = 0.0605 (at node 8)
Accepted packet rate average = 0.0500937
	minimum = 0.0425 (at node 0)
	maximum = 0.056 (at node 8)
Injected flit rate average = 0.0499375
	minimum = 0.038 (at node 1)
	maximum = 0.0605 (at node 8)
Accepted flit rate average= 0.0500937
	minimum = 0.0425 (at node 0)
	maximum = 0.056 (at node 8)
Injected packet length average = 1
Accepted packet length average = 1
Total in-flight flits = 11 (11 measured)
latency change    = 0.00779074
throughput change = 0.0484508
Draining all recorded packets ...
Draining remaining packets ...
Time taken is 3561 cycles
Class 0:
Packet latency average = 19.8459
	minimum = 7
	maximum = 51
Network latency average = 19.8459
	minimum = 7
	maximum = 51
Slowest packet = 14679
Flit latency average = 19.8459
	minimum = 7
	maximum = 51
Slowest flit = 14679
Fragmentation average = 0
	minimum = 0
	maximum = 0
Injected packet rate average = 0.046625
	minimum = 0.03 (at node 4)
	maximum = 0.064 (at node 5)
Accepted packet rate average = 0.044625
	minimum = 0.034 (at node 10)
	maximum = 0.066 (at node 1)
Injected flit rate average = 0.046625
	minimum = 0.03 (at node 4)
	maximum = 0.064 (at node 5)
Accepted flit rate average= 0.044625
	minimum = 0.034 (at node 10)
	maximum = 0.066 (at node 1)
Injected packet length average = 1
Accepted packet length average = 1
Total in-flight flits = 16 (0 measured)
latency change    = 1
throughput change = 1
Class 0:
Packet latency average = 19.9718
	minimum = 7
	maximum = 51
Network latency average = 19.9718
	minimum = 7
	maximum = 51
Slowest packet = 14679
Flit latency average = 19.9718
	minimum = 7
	maximum = 51
Slowest flit = 14679
Fragmentation average = 0
	minimum = 0
	maximum = 0
Injected packet rate average = 0.0470625
	minimum = 0.036 (at node 3)
	maximum = 0.053 (at node 1)
Accepted packet rate average = 0.0465625
	minimum = 0.034 (at node 9)
	maximum = 0.059 (at node 14)
Injected flit rate average = 0.0470625
	minimum = 0.036 (at node 3)
	maximum = 0.053 (at node 1)
Accepted flit rate average= 0.0465625
	minimum = 0.034 (at node 9)
	maximum = 0.059 (at node 14)
Injected packet length average = 1
Accepted packet length average = 1
Total in-flight flits = 8 (0 measured)
latency change    = 0.00630257
throughput change = 0.0416107
Class 0:
Packet latency average = 19.9481
	minimum = 7
	maximum = 47
Network latency average = 19.9481
	minimum = 7
	maximum = 47
Slowest packet = 15646
Flit latency average = 19.9481
	minimum = 7
	maximum = 47
Slowest flit = 15646
Fragmentation average = 0
	minimum = 0
	maximum = 0
Injected packet rate average = 0.0495
	minimum = 0.032 (at node 6)
	maximum = 0.068 (at node 12)
Accepted packet rate average = 0.048125
	minimum = 0.028 (at node 14)
	maximum = 0.062 (at node 7)
Injected flit rate average = 0.0495
	minimum = 0.032 (at node 6)
	maximum = 0.068 (at node 12)
Accepted flit rate average= 0.048125
	minimum = 0.028 (at node 14)
	maximum = 0.062 (at node 7)
Injected packet length average = 1
Accepted packet length average = 1
Total in-flight flits = 19 (0 measured)
latency change    = 0.0011911
throughput change = 0.0324675
Warmed up ...Time used is 1500 cycles
Class 0:
Packet latency average = 20.5699
	minimum = 7
	maximum = 45
Network latency average = 20.5699
	minimum = 7
	maximum = 45
Slowest packet = 15862
Flit latency average = 20.7111
	minimum = 7
	maximum = 45
Slowest flit = 15862
Fragmentation average = 0
	minimum = 0
	maximum = 0
Injected packet rate average = 0.049625
	minimum = 0.04 (at node 3)
	maximum = 0.06 (at node 4)
Accepted packet rate average = 0.04975
	minimum = 0.038 (at node 2)
	maximum = 0.068 (at node 5)
Injected flit rate average = 0.049625
	minimum = 0.04 (at node 3)
	maximum = 0.06 (at node 4)
Accepted flit rate average= 0.04975
	minimum = 0.038 (at node 2)
	maximum = 0.068 (at node 5)
Injected packet length average = 1
Accepted packet length average = 1
Total in-flight flits = 18 (18 measured)
latency change    = 0.030232
throughput change = 0.0326633
Class 0:
Packet latency average = 20.5642
	minimum = 7
	maximum = 45
Network latency average = 20.5642
	minimum = 7
	maximum = 45
Slowest packet = 15862
Flit latency average = 20.634
	minimum = 7
	maximum = 45
Slowest flit = 15862
Fragmentation average = 0
	minimum = 0
	maximum = 0
Injected packet rate average = 0.04975
	minimum = 0.04 (at node 6)
	maximum = 0.061 (at node 4)
Accepted packet rate average = 0.050375
	minimum = 0.042 (at node 11)
	maximum = 0.068 (at node 5)
Injected flit rate average = 0.04975
	minimum = 0.04 (at node 6)
	maximum = 0.061 (at node 4)
Accepted flit rate average= 0.050375
	minimum = 0.042 (at node 11)
	maximum = 0.068 (at node 5)
Injected packet length average = 1
Accepted packet length average = 1
Total in-flight flits = 9 (9 measured)
latency change    = 0.000279764
throughput change = 0.0124069
Class 0:
Packet latency average = 20.3562
	minimum = 7
	maximum = 45
Network latency average = 20.3562
	minimum = 7
	maximum = 45
Slowest packet = 15862
Flit latency average = 20.4071
	minimum = 7
	maximum = 45
Slowest flit = 15862
Fragmentation average = 0
	minimum = 0
	maximum = 0
Injected packet rate average = 0.0493333
	minimum = 0.0426667 (at node 13)
	maximum = 0.0613333 (at node 4)
Accepted packet rate average = 0.0493333
	minimum = 0.0366667 (at node 9)
	maximum = 0.06 (at node 5)
Injected flit rate average = 0.0493333
	minimum = 0.0426667 (at node 13)
	maximum = 0.0613333 (at node 4)
Accepted flit rate average= 0.0493333
	minimum = 0.0366667 (at node 9)
	maximum = 0.06 (at node 5)
Injected packet length average = 1
Accepted packet length average = 1
Total in-flight flits = 19 (19 measured)
latency change    = 0.0102153
throughput change = 0.0211149
Draining all recorded packets ...
Draining remaining packets ...
Time taken is 3063 cycles
Class 0:
Packet latency average = 20.1078
	minimum = 7
	maximum = 55
Network latency average = 20.1078
	minimum = 7
	maximum = 55
Slowest packet = 17025
Flit latency average = 20.1078
	minimum = 7
	maximum = 55
Slowest flit = 17025
Fragmentation average = 0
	minimum = 0
	maximum = 0
Injected packet rate average = 0.04825
	minimum = 0.028 (at node 9)
	maximum = 0.068 (at node 2)
Accepted packet rate average = 0.046375
	minimum = 0.024 (at node 2)
	maximum = 0.066 (at node 13)
Injected flit rate average = 0.04825
	minimum = 0.028 (at node 9)
	maximum = 0.068 (at node 2)
Accepted flit rate average= 0.046375
	minimum = 0.024 (at node 2)
	maximum = 0.066 (at node 13)
Injected packet length average = 1
Accepted packet length average = 1
Total in-flight flits = 15 (0 measured)
latency change    = 1
throughput change = 1
Class 0:
Packet latency average = 20.2506
	minimum = 7
	maximum = 55
Network latency average = 20.2506
	minimum = 7
	maximum = 55
Slowest packet = 17025
Flit latency average = 20.2506
	minimum = 7
	maximum = 55
Slowest flit = 17025
Fragmentation average = 0
	minimum = 0
	maximum = 0
Injected packet rate average = 0.0501875
	minimum = 0.038 (at node 9)
	maximum = 0.064 (at node 2)
Accepted packet rate average = 0.049625
	minimum = 0.037 (at node 12)
	maximum = 0.063 (at node 13)
Injected flit rate average = 0.0501875
	minimum = 0.038 (at node 9)
	maximum = 0.064 (at node 2)
Accepted flit rate average= 0.049625
	minimum = 0.037 (at node 12)
	maximum = 0.063 (at node 13)
Injected packet length average = 1
Accepted packet length average = 1
Total in-flight flits = 9 (0 measured)
latency change    = 0.00705228
throughput change = 0.0654912
Class 0:
Packet latency average = 20.451
	minimum = 7
	maximum = 45
Network latency average = 20.451
	minimum = 7
	maximum = 45
Slowest packet = 18037
Flit latency average = 20.451
	minimum = 7
	maximum = 45
Slowest flit = 18037
Fragmentation average = 0
	minimum = 0
	maximum = 0
Injected packet rate average = 0.0485
	minimum = 0.028 (at node 2)
	maximum = 0.07 (at node 13)
Accepted packet rate average = 0.0485
	minimum = 0.026 (at node 7)
	maximum = 0.068 (at node 4)
Injected flit rate average = 0.0485
	minimum = 0.028 (at node 2)
	maximum = 0.07 (at node 13)
Accepted flit rate average= 0.0485
	minimum = 0.026 (at node 7)
	maximum = 0.068 (at node 4)
Injected packet length average = 1
Accepted packet length average = 1
Total in-flight flits = 9 (0 measured)
latency change    = 0.00979908
throughput change = 0.0231959
Warmed up ...Time used is 1500 cycles
Class 0:
Packet latency average = 19.1905
	minimum = 7
	maximum = 47
Network latency average = 19.1905
	minimum = 7
	maximum = 47
Slowest packet = 18202
Flit latency average = 19.2558
	minimum = 7
	maximum = 47
Slowest flit = 18202
Fragmentation average = 0
	minimum = 0
	maximum = 0
Injected packet rate average = 0.050125
	minimum = 0.038 (at node 1)
	maximum = 0.066 (at node 13)
Accepted packet rate average = 0.048375
	minimum = 0.036 (at node 6)
	maximum = 0.064 (at node 0)
Injected flit rate average = 0.050125
	minimum = 0.038 (at node 1)
	maximum = 0.066 (at node 13)
Accepted flit rate average= 0.048375
	minimum = 0.036 (at node 6)
	maximum = 0.064 (at node 0)
Injected packet length average = 1
Accepted packet length average = 1
Total in-flight flits = 23 (23 measured)
latency change    = 0.0656865
throughput change = 0.00258398
Class 0:
Packet latency average = 19.6333
	minimum = 7
	maximum = 47
Network latency average = 19.6333
	minimum = 7
	maximum = 47
Slowest packet = 18202
Flit latency average = 19.6597
	minimum = 7
	maximum = 47
Slowest flit = 18202
Fragmentation average = 0
	minimum = 0
	maximum = 0
Injected packet rate average = 0.050625
	minimum = 0.04 (at node 14)
	maximum = 0.062 (at node 6)
Accepted packet rate average = 0.0505
	minimum = 0.039 (at node 14)
	maximum = 0.071 (at node 0)
Injected flit rate average = 0.050625
	minimum = 0.04 (at node 14)
	maximum = 0.062 (at node 6)
Accepted flit rate average= 0.0505
	minimum = 0.039 (at node 14)
	maximum = 0.071 (at node 0)
Injected packet length average = 1
Accepted packet length average = 1
Total in-flight flits = 11 (11 measured)
latency change    = 0.0225543
throughput change = 0.0420792
Class 0:
Packet latency average = 19.8153
	minimum = 7
	maximum = 47
Network latency average = 19.8153
	minimum = 7
	maximum = 47
Slowest packet = 18202
Flit latency average = 19.8318
	minimum = 7
	maximum = 47
Slowest flit = 18202
Fragmentation average = 0
	minimum = 0
	maximum = 0
Injected packet rate average = 0.0495833
	minimum = 0.042 (at node 2)
	maximum = 0.0586667 (at node 6)
Accepted packet rate average = 0.0495417
	minimum = 0.0386667 (at node 5)
	maximum = 0.0606667 (at node 7)
Injected flit rate average = 0.0495833
	minimum = 0.042 (at node 2)
	maximum = 0.0586667 (at node 6)
Accepted flit rate average= 0.0495417
	minimum = 0.0386667 (at node 5)
	maximum = 0.0606667 (at node 7)
Injected packet length average = 1
Accepted packet length average = 1
Total in-flight flits = 10 (10 measured)
latency change    = 0.00918296
throughput change = 0.019344
Class 0:
Packet latency average = 19.9183
	minimum = 7
	maximum = 57
Network latency average = 19.9183
	minimum = 7
	maximum = 57
Slowest packet = 19602
Flit latency average = 19.9302
	minimum = 7
	maximum = 57
Slowest flit = 19602
Fragmentation average = 0
	minimum = 0
	maximum = 0
Injected packet rate average = 0.049375
	minimum = 0.0415 (at node 1)
	maximum = 0.0595 (at node 6)
Accepted packet rate average = 0.04925
	minimum = 0.0375 (at node 2)
	maximum = 0.0615 (at node 7)
Injected flit rate average = 0.049375
	minimum = 0.0415 (at node 1)
	maximum = 0.0595 (at node 6)
Accepted flit rate average= 0.04925
	minimum = 0.0375 (at node 2)
	maximum = 0.0615 (at node 7)
Injected packet length average = 1
Accepted packet length average = 1
Total in-flight flits = 13 (13 measured)
latency change    = 0.00517418
throughput change = 0.00592217
Draining all recorded packets ...
Draining remaining packets ...
Time taken is 3563 cycles
Class 0:
Packet latency average = 19.3378
	minimum = 7
	maximum = 40
Network latency average = 19.3378
	minimum = 7
	maximum = 40
Slowest packet = 19851
Flit latency average = 19.3378
	minimum = 7
	maximum = 40
Slowest flit = 19851
Fragmentation average = 0
	minimum = 0
	maximum = 0
Injected packet rate average = 0.0485
	minimum = 0.028 (at node 5)
	maximum = 0.068 (at node 10)
Accepted packet rate average = 0.04625
	minimum = 0.034 (at node 12)
	maximum = 0.06 (at node 14)
Injected flit rate average = 0.0485
	minimum = 0.028 (at node 5)
	maximum = 0.068 (at node 10)
Accepted flit rate average= 0.04625
	minimum = 0.034 (at node 12)
	maximum = 0.06 (at node 14)
Injected packet length average = 1
Accepted packet length average = 1
Total in-flight flits = 18 (0 measured)
latency change    = 1
throughput change = 1
Class 0:
Packet latency average = 19.7433
	minimum = 7
	maximum = 40
Network latency average = 19.7433
	minimum = 7
	maximum = 40
Slowest packet = 19851
Flit latency average = 19.7433
	minimum = 7
	maximum = 40
Slowest flit = 19851
Fragmentation average = 0
	minimum = 0
	maximum = 0
Injected packet rate average = 0.04775
	minimum = 0.03 (at node 5)
	maximum = 0.057 (at node 6)
Accepted packet rate average = 0.0465
	minimum = 0.036 (at node 15)
	maximum = 0.056 (at node 4)
Injected flit rate average = 0.04775
	minimum = 0.03 (at node 5)
	maximum = 0.057 (at node 6)
Accepted flit rate average= 0.0465
	minimum = 0.036 (at node 15)
	maximum = 0.056 (at node 4)
Injected packet length average = 1
Accepted packet length average = 1
Total in-flight flits = 20 (0 measured)
latency change    = 0.0205357
throughput change = 0.00537634
Class 0:
Packet latency average = 19.5
	minimum = 7
	maximum = 46
Network latency average = 19.5
	minimum = 7
	maximum = 46
Slowest packet = 20672
Flit latency average = 19.5
	minimum = 7
	maximum = 46
Slowest flit = 20672
Fragmentation average = 0
	minimum = 0
	maximum = 0
Injected packet rate average = 0.046375
	minimum = 0.026 (at node 12)
	maximum = 0.082 (at node 3)
Accepted packet rate average = 0.04725
	minimum = 0.03 (at node 8)
	maximum = 0.074 (at node 13)
Injected flit rate average = 0.046375
	minimum = 0.026 (at node 12)
	maximum = 0.082 (at node 3)
Accepted flit rate average= 0.04725
	minimum = 0.03 (at node 8)
	maximum = 0.074 (at node 13)
Injected packet length average = 1
Accepted packet length average = 1
Total in-flight flits = 13 (0 measured)
latency change    = 0.0124759
throughput change = 0.015873
Warmed up ...Time used is 1500 cycles
Class 0:
Packet latency average = 20.1869
	minimum = 7
	maximum = 44
Network latency average = 20.1869
	minimum = 7
	maximum = 44
Slowest packet = 20974
Flit latency average = 20.2983
	minimum = 7
	maximum = 44
Slowest flit = 20974
Fragmentation average = 0
	minimum = 0
	maximum = 0
Injected packet rate average = 0.05075
	minimum = 0.028 (at node 2)
	maximum = 0.076 (at node 7)
Accepted packet rate average = 0.051125
	minimum = 0.036 (at node 2)
	maximum = 0.068 (at node 8)
Injected flit rate average = 0.05075
	minimum = 0.028 (at node 2)
	maximum = 0.076 (at node 7)
Accepted flit rate average= 0.051125
	minimum = 0.036 (at node 2)
	maximum = 0.068 (at node 8)
Injected packet length average = 1
Accepted packet length average = 1
Total in-flight flits = 10 (10 measured)
latency change    = 0.0340255
throughput change = 0.0757946
Class 0:
Packet latency average = 20.212
	minimum = 7
	maximum = 44
Network latency average = 20.212
	minimum = 7
	maximum = 44
Slowest packet = 20974
Flit latency average = 20.2675
	minimum = 7
	maximum = 44
Slowest flit = 20974
Fragmentation average = 0
	minimum = 0
	maximum = 0
Injected packet rate average = 0.051625
	minimum = 0.039 (at node 9)
	maximum = 0.061 (at node 14)
Accepted packet rate average = 0.0509375
	minimum = 0.035 (at node 2)
	maximum = 0.061 (at node 0)
Injected flit rate average = 0.051625
	minimum = 0.039 (at node 9)
	maximum = 0.061 (at node 14)
Accepted flit rate average= 0.0509375
	minimum = 0.035 (at node 2)
	maximum = 0.061 (at node 0)
Injected packet length average = 1
Accepted packet length average = 1
Total in-flight flits = 24 (24 measured)
latency change    = 0.00124191
throughput change = 0.00368098
Class 0:
Packet latency average = 20.4662
	minimum = 7
	maximum = 45
Network latency average = 20.4662
	minimum = 7
	maximum = 45
Slowest packet = 22077
Flit latency average = 20.4996
	minimum = 7
	maximum = 45
Slowest flit = 22077
Fragmentation average = 0
	minimum = 0
	maximum = 0
Injected packet rate average = 0.0524167
	minimum = 0.04 (at node 1)
	maximum = 0.0633333 (at node 14)
Accepted packet rate average = 0.0522917
	minimum = 0.0426667 (at node 12)
	maximum = 0.0626667 (at node 15)
Injected flit rate average = 0.0524167
	minimum = 0.04 (at node 1)
	maximum = 0.0633333 (at node 14)
Accepted flit rate average= 0.0522917
	minimum = 0.0426667 (at node 12)
	maximum = 0.0626667 (at node 15)
Injected packet length average = 1
Accepted packet length average = 1
Total in-flight flits = 16 (16 measured)
latency change    = 0.0124211
throughput change = 0.0258964
Class 0:
Packet latency average = 20.2682
	minimum = 7
	maximum = 45
Network latency average = 20.2682
	minimum = 7
	maximum = 45
Slowest packet = 22077
Flit latency average = 20.2953
	minimum = 7
	maximum = 45
Slowest flit = 22077
Fragmentation average = 0
	minimum = 0
	maximum = 0
Injected packet rate average = 0.0515938
	minimum = 0.0405 (at node 9)
	maximum = 0.065 (at node 14)
Accepted packet rate average = 0.0514375
	minimum = 0.042 (at node 9)
	maximum = 0.062 (at node 15)
Injected flit rate average = 0.0515938
	minimum = 0.0405 (at node 9)
	maximum = 0.065 (at node 14)
Accepted flit rate average= 0.0514375
	minimum = 0.042 (at node 9)
	maximum = 0.062 (at node 15)
Injected packet length average = 1
Accepted packet length average = 1
Total in-flight flits = 18 (18 measured)
latency change    = 0.00976729
throughput change = 0.0166059
Draining all recorded packets ...
Draining remaining packets ...
Time taken is 3566 cycles
Class 0:
Packet latency average = 19.7628
	minimum = 7
	maximum = 50
Network latency average = 19.7628
	minimum = 7
	maximum = 50
Slowest packet = 22594
Flit latency average = 19.7628
	minimum = 7
	maximum = 50
Slowest flit = 22594
Fragmentation average = 0
	minimum = 0
	maximum = 0
Injected packet rate average = 0.05375
	minimum = 0.042 (at node 7)
	maximum = 0.076 (at node 15)
Accepted packet rate average = 0.051125
	minimum = 0.036 (at node 4)
	maximum = 0.068 (at node 2)
Injected flit rate average = 0.05375
	minimum = 0.042 (at node 7)
	maximum = 0.076 (at node 15)
Accepted flit rate average= 0.051125
	minimum = 0.036 (at node 4)
	maximum = 0.068 (at node 2)
Injected packet length average = 1
Accepted packet length average = 1
Total in-flight flits = 21 (0 measured)
latency change    = 1
throughput change = 1
Class 0:
Packet latency average = 19.8597
	minimum = 7
	maximum = 50
Network latency average = 19.8597
	minimum = 7
	maximum = 50
Slowest packet = 22594
Flit latency average = 19.8597
	minimum = 7
	maximum = 50
Slowest flit = 22594
Fragmentation average = 0
	minimum = 0
	maximum = 0
Injected packet rate average = 0.0528125
	minimum = 0.04 (at node 9)
	maximum = 0.072 (at node 15)
Accepted packet rate average = 0.0516875
	minimum = 0.045 (at node 1)
	maximum = 0.069 (at node 2)
Injected flit rate average = 0.0528125
	minimum = 0.04 (at node 9)
	maximum = 0.072 (at node 15)
Accepted flit rate average= 0.0516875
	minimum = 0.045 (at node 1)
	maximum = 0.069 (at node 2)
Injected packet length average = 1
Accepted packet length average = 1
Total in-flight flits = 18 (0 measured)
latency change    = 0.00487911
throughput change = 0.0108827
Class 0:
Packet latency average = 19.5847
	minimum = 7
	maximum = 39
Network latency average = 19.5847
	minimum = 7
	maximum = 39
Slowest packet = 23557
Flit latency average = 19.5847
	minimum = 7
	maximum = 39
Slowest flit = 23557
Fragmentation average = 0
	minimum = 0
	maximum = 0
Injected packet rate average = 0.05275
	minimum = 0.04 (at node 5)
	maximum = 0.07 (at node 1)
Accepted packet rate average = 0.052375
	minimum = 0.036 (at node 12)
	maximum = 0.074 (at node 4)
Injected flit rate average = 0.05275
	minimum = 0.04 (at node 5)
	maximum = 0.07 (at node 1)
Accepted flit rate average= 0.052375
	minimum = 0.036 (at node 12)
	maximum = 0.074 (at node 4)
Injected packet length average = 1
Accepted packet length average = 1
Total in-flight flits = 21 (0 measured)
latency change    = 0.014042
throughput change = 0.0131265
Warmed up ...Time used is 1500 cycles
Class 0:
Packet latency average = 20.1786
	minimum = 7
	maximum = 41
Network latency average = 20.1786
	minimum = 7
	maximum = 41
Slowest packet = 24186
Flit latency average = 20.3075
	minimum = 7
	maximum = 41
Slowest flit = 24186
Fragmentation average = 0
	minimum = 0
	maximum = 0
Injected packet rate average = 0.051
	minimum = 0.04 (at node 1)
	maximum = 0.066 (at node 8)
Accepted packet rate average = 0.051625
	minimum = 0.026 (at node 3)
	maximum = 0.074 (at node 9)
Injected flit rate average = 0.051
	minimum = 0.04 (at node 1)
	maximum = 0.066 (at node 8)
Accepted flit rate average= 0.051625
	minimum = 0.026 (at node 3)
	maximum = 0.074 (at node 9)
Injected packet length average = 1
Accepted packet length average = 1
Total in-flight flits = 16 (16 measured)
latency change    = 0.0294295
throughput change = 0.0145278
Class 0:
Packet latency average = 20.0063
	minimum = 7
	maximum = 45
Network latency average = 20.0063
	minimum = 7
	maximum = 45
Slowest packet = 24556
Flit latency average = 20.0765
	minimum = 7
	maximum = 45
Slowest flit = 24556
Fragmentation average = 0
	minimum = 0
	maximum = 0
Injected packet rate average = 0.0501875
	minimum = 0.033 (at node 5)
	maximum = 0.057 (at node 3)
Accepted packet rate average = 0.050625
	minimum = 0.034 (at node 3)
	maximum = 0.06 (at node 9)
Injected flit rate average = 0.0501875
	minimum = 0.033 (at node 5)
	maximum = 0.057 (at node 3)
Accepted flit rate average= 0.050625
	minimum = 0.034 (at node 3)
	maximum = 0.06 (at node 9)
Injected packet length average = 1
Accepted packet length average = 1
Total in-flight flits = 14 (14 measured)
latency change    = 0.00860899
throughput change = 0.0197531
Class 0:
Packet latency average = 20.1848
	minimum = 7
	maximum = 45
Network latency average = 20.1848
	minimum = 7
	maximum = 45
Slowest packet = 24556
Flit latency average = 20.2293
	minimum = 7
	maximum = 45
Slowest flit = 24556
Fragmentation average = 0
	minimum = 0
	maximum = 0
Injected packet rate average = 0.0494583
	minimum = 0.04 (at node 5)
	maximum = 0.0566667 (at node 4)
Accepted packet rate average = 0.0497917
	minimum = 0.034 (at node 3)
	maximum = 0.0586667 (at node 9)
Injected flit rate average = 0.0494583
	minimum = 0.04 (at node 5)
	maximum = 0.0566667 (at node 4)
Accepted flit rate average= 0.0497917
	minimum = 0.034 (at node 3)
	maximum = 0.0586667 (at node 9)
Injected packet length average = 1
Accepted packet length average = 1
Total in-flight flits = 13 (13 measured)
latency change    = 0.00884332
throughput change = 0.0167364
Draining all recorded packets ...
Draining remaining packets ...
Time taken is 3064 cycles
Class 0:
Packet latency average = 19.2682
	minimum = 7
	maximum = 46
Network latency average = 19.2682
	minimum = 7
	maximum = 46
Slowest packet = 25235
Flit latency average = 19.2682
	minimum = 7
	maximum = 46
Slowest flit = 25235
Fragmentation average = 0
	minimum = 0
	maximum = 0
Injected packet rate average = 0.0465
	minimum = 0.028 (at node 8)
	maximum = 0.066 (at node 4)
Accepted packet rate average = 0.04475
	minimum = 0.022 (at node 14)
	maximum = 0.064 (at node 5)
Injected flit rate average = 0.0465
	minimum = 0.028 (at node 8)
	maximum = 0.066 (at node 4)
Accepted flit rate average= 0.04475
	minimum = 0.022 (at node 14)
	maximum = 0.064 (at node 5)
Injected packet length average = 1
Accepted packet length average = 1
Total in-flight flits = 14 (0 measured)
latency change    = 1
throughput change = 1
Class 0:
Packet latency average = 19.3338
	minimum = 7
	maximum = 46
Network latency average = 19.3338
	minimum = 7
	maximum = 46
Slowest packet = 25235
Flit latency average = 19.3338
	minimum = 7
	maximum = 46
Slowest flit = 25235
Fragmentation average = 0
	minimum = 0
	maximum = 0
Injected packet rate average = 0.0466875
	minimum = 0.026 (at node 7)
	maximum = 0.06 (at node 5)
Accepted packet rate average = 0.0453125
	minimum = 0.028 (at node 0)
	maximum = 0.058 (at node 9)
Injected flit rate average = 0.0466875
	minimum = 0.026 (at node 7)
	maximum = 0.06 (at node 5)
Accepted flit rate average= 0.0453125
	minimum = 0.028 (at node 0)
	maximum = 0.058 (at node 9)
Injected packet length average = 1
Accepted packet length average = 1
Total in-flight flits = 22 (0 measured)
latency change    = 0.00339492
throughput change = 0.0124138
Class 0:
Packet latency average = 19.9904
	minimum = 7
	maximum = 44
Network latency average = 19.9904
	minimum = 7
	maximum = 44
Slowest packet = 26045
Flit latency average = 19.9904
	minimum = 7
	maximum = 44
Slowest flit = 26045
Fragmentation average = 0
	minimum = 0
	maximum = 0
Injected packet rate average = 0.051125
	minimum = 0.036 (at node 8)
	maximum = 0.076 (at node 2)
Accepted packet rate average = 0.052125
	minimum = 0.034 (at node 1)
	maximum = 0.074 (at node 12)
Injected flit rate average = 0.051125
	minimum = 0.036 (at node 8)
	maximum = 0.076 (at node 2)
Accepted flit rate average= 0.052125
	minimum = 0.034 (at node 1)
	maximum = 0.074 (at node 12)
Injected packet length average = 1
Accepted packet length average = 1
Total in-flight flits = 14 (0 measured)
latency change    = 0.0328465
throughput change = 0.130695
Warmed up ...Time used is 1500 cycles
Class 0:
Packet latency average = 19.802
	minimum = 7
	maximum = 46
Network latency average = 19.802
	minimum = 7
	maximum = 46
Slowest packet = 26581
Flit latency average = 19.9007
	minimum = 7
	maximum = 46
Slowest flit = 26581
Fragmentation average = 0
	minimum = 0
	maximum = 0
Injected packet rate average = 0.05325
	minimum = 0.036 (at node 8)
	maximum = 0.072 (at node 7)
Accepted packet rate average = 0.052875
	minimum = 0.034 (at node 6)
	maximum = 0.07 (at node 10)
Injected flit rate average = 0.05325
	minimum = 0.036 (at node 8)
	maximum = 0.072 (at node 7)
Accepted flit rate average= 0.052875
	minimum = 0.034 (at node 6)
	maximum = 0.07 (at node 10)
Injected packet length average = 1
Accepted packet length average = 1
Total in-flight flits = 17 (17 measured)
latency change    = 0.00951682
throughput change = 0.0141844
Class 0:
Packet latency average = 20.1239
	minimum = 7
	maximum = 46
Network latency average = 20.1239
	minimum = 7
	maximum = 46
Slowest packet = 26581
Flit latency average = 20.1706
	minimum = 7
	maximum = 46
Slowest flit = 26581
Fragmentation average = 0
	minimum = 0
	maximum = 0
Injected packet rate average = 0.0505625
	minimum = 0.038 (at node 12)
	maximum = 0.059 (at node 11)
Accepted packet rate average = 0.0498125
	minimum = 0.039 (at node 6)
	maximum = 0.058 (at node 14)
Injected flit rate average = 0.0505625
	minimum = 0.038 (at node 12)
	maximum = 0.059 (at node 11)
Accepted flit rate average= 0.0498125
	minimum = 0.039 (at node 6)
	maximum = 0.058 (at node 14)
Injected packet length average = 1
Accepted packet length average = 1
Total in-flight flits = 26 (26 measured)
latency change    = 0.0159972
throughput change = 0.0614806
Class 0:
Packet latency average = 20.2527
	minimum = 7
	maximum = 46
Network latency average = 20.2527
	minimum = 7
	maximum = 46
Slowest packet = 26581
Flit latency average = 20.2824
	minimum = 7
	maximum = 46
Slowest flit = 26581
Fragmentation average = 0
	minimum = 0
	maximum = 0
Injected packet rate average = 0.0497917
	minimum = 0.0386667 (at node 12)
	maximum = 0.056 (at node 7)
Accepted packet rate average = 0.049875
	minimum = 0.04 (at node 8)
	maximum = 0.0553333 (at node 15)
Injected flit rate average = 0.0497917
	minimum = 0.0386667 (at node 12)
	maximum = 0.056 (at node 7)
Accepted flit rate average= 0.049875
	minimum = 0.04 (at node 8)
	maximum = 0.0553333 (at node 15)
Injected packet length average = 1
Accepted packet length average = 1
Total in-flight flits = 12 (12 measured)
latency change    = 0.00636283
throughput change = 0.00125313
Class 0:
Packet latency average = 20.2868
	minimum = 7
	maximum = 52
Network latency average = 20.2868
	minimum = 7
	maximum = 52
Slowest packet = 27610
Flit latency average = 20.309
	minimum = 7
	maximum = 52
Slowest flit = 27610
Fragmentation average = 0
	minimum = 0
	maximum = 0
Injected packet rate average = 0.0492187
	minimum = 0.041 (at node 4)
	maximum = 0.059 (at node 14)
Accepted packet rate average = 0.04925
	minimum = 0.039 (at node 8)
	maximum = 0.061 (at node 0)
Injected flit rate average = 0.0492187
	minimum = 0.041 (at node 4)
	maximum = 0.059 (at node 14)
Accepted flit rate average= 0.04925
	minimum = 0.039 (at node 8)
	maximum = 0.061 (at node 0)
Injected packet length average = 1
Accepted packet length average = 1
Total in-flight flits = 13 (13 measured)
latency change    = 0.00167915
throughput change = 0.0126904
Class 0:
Packet latency average = 20.2237
	minimum = 7
	maximum = 52
Network latency average = 20.2237
	minimum = 7
	maximum = 52
Slowest packet = 27610
Flit latency average = 20.2417
	minimum = 7
	maximum = 52
Slowest flit = 27610
Fragmentation average = 0
	minimum = 0
	maximum = 0
Injected packet rate average = 0.049725
	minimum = 0.042 (at node 12)
	maximum = 0.0572 (at node 14)
Accepted packet rate average = 0.04975
	minimum = 0.038 (at node 8)
	maximum = 0.058 (at node 0)
Injected flit rate average = 0.049725
	minimum = 0.042 (at node 12)
	maximum = 0.0572 (at node 14)
Accepted flit rate average= 0.04975
	minimum = 0.038 (at node 8)
	maximum = 0.058 (at node 0)
Injected packet length average = 1
Accepted packet length average = 1
Total in-flight flits = 13 (13 measured)
latency change    = 0.00312147
throughput change = 0.0100503
Draining all recorded packets ...
Draining remaining packets ...
Time taken is 4059 cycles
Class 0:
Packet latency average = 20.5688
	minimum = 7
	maximum = 46
Network latency average = 20.561
	minimum = 7
	maximum = 46
Slowest packet = 28423
Flit latency average = 20.561
	minimum = 7
	maximum = 46
Slowest flit = 28423
Fragmentation average = 0
	minimum = 0
	maximum = 0
Injected packet rate average = 0.049875
	minimum = 0.036 (at node 0)
	maximum = 0.066 (at node 4)
Accepted packet rate average = 0.048125
	minimum = 0.024 (at node 2)
	maximum = 0.066 (at node 12)
Injected flit rate average = 0.049875
	minimum = 0.036 (at node 0)
	maximum = 0.066 (at node 4)
Accepted flit rate average= 0.048125
	minimum = 0.024 (at node 2)
	maximum = 0.066 (at node 12)
Injected packet length average = 1
Accepted packet length average = 1
Total in-flight flits = 14 (0 measured)
latency change    = 1
throughput change = 1
Class 0:
Packet latency average = 20.0843
	minimum = 7
	maximum = 46
Network latency average = 20.0805
	minimum = 7
	maximum = 46
Slowest packet = 28423
Flit latency average = 20.0805
	minimum = 7
	maximum = 46
Slowest flit = 28423
Fragmentation average = 0
	minimum = 0
	maximum = 0
Injected packet rate average = 0.0506875
	minimum = 0.041 (at node 11)
	maximum = 0.064 (at node 3)
Accepted packet rate average = 0.0496875
	minimum = 0.029 (at node 2)
	maximum = 0.06 (at node 6)
Injected flit rate average = 0.0506875
	minimum = 0.041 (at node 11)
	maximum = 0.064 (at node 3)
Accepted flit rate average= 0.0496875
	minimum = 0.029 (at node 2)
	maximum = 0.06 (at node 6)
Injected packet length average = 1
Accepted packet length average = 1
Total in-flight flits = 16 (0 measured)
latency change    = 0.0241261
throughput change = 0.0314465
Class 0:
Packet latency average = 19.6603
	minimum = 7
	maximum = 37
Network latency average = 19.6603
	minimum = 7
	maximum = 37
Slowest packet = 29031
Flit latency average = 19.6603
	minimum = 7
	maximum = 37
Slowest flit = 29031
Fragmentation average = 0
	minimum = 0
	maximum = 0
Injected packet rate average = 0.046
	minimum = 0.032 (at node 7)
	maximum = 0.062 (at node 5)
Accepted packet rate average = 0.045625
	minimum = 0.028 (at node 13)
	maximum = 0.068 (at node 6)
Injected flit rate average = 0.046
	minimum = 0.032 (at node 7)
	maximum = 0.062 (at node 5)
Accepted flit rate average= 0.045625
	minimum = 0.028 (at node 13)
	maximum = 0.068 (at node 6)
Injected packet length average = 1
Accepted packet length average = 1
Total in-flight flits = 19 (0 measured)
latency change    = 0.0215665
throughput change = 0.0890411
Warmed up ...Time used is 1500 cycles
Class 0:
Packet latency average = 20.2571
	minimum = 7
	maximum = 43
Network latency average = 20.2571
	minimum = 7
	maximum = 43
Slowest packet = 29479
Flit latency average = 20.3652
	minimum = 7
	maximum = 43
Slowest flit = 29479
Fragmentation average = 0
	minimum = 0
	maximum = 0
Injected packet rate average = 0.050125
	minimum = 0.034 (at node 12)
	maximum = 0.06 (at node 15)
Accepted packet rate average = 0.051
	minimum = 0.038 (at node 5)
	maximum = 0.066 (at node 4)
Injected flit rate average = 0.050125
	minimum = 0.034 (at node 12)
	maximum = 0.06 (at node 15)
Accepted flit rate average= 0.051
	minimum = 0.038 (at node 5)
	maximum = 0.066 (at node 4)
Injected packet length average = 1
Accepted packet length average = 1
Total in-flight flits = 12 (12 measured)
latency change    = 0.0294611
throughput change = 0.105392
Class 0:
Packet latency average = 20.3372
	minimum = 7
	maximum = 48
Network latency average = 20.3372
	minimum = 7
	maximum = 48
Slowest packet = 29820
Flit latency average = 20.3907
	minimum = 7
	maximum = 48
Slowest flit = 29820
Fragmentation average = 0
	minimum = 0
	maximum = 0
Injected packet rate average = 0.049375
	minimum = 0.035 (at node 6)
	maximum = 0.061 (at node 7)
Accepted packet rate average = 0.04975
	minimum = 0.043 (at node 10)
	maximum = 0.058 (at node 7)
Injected flit rate average = 0.049375
	minimum = 0.035 (at node 6)
	maximum = 0.061 (at node 7)
Accepted flit rate average= 0.04975
	minimum = 0.043 (at node 10)
	maximum = 0.058 (at node 7)
Injected packet length average = 1
Accepted packet length average = 1
Total in-flight flits = 13 (13 measured)
latency change    = 0.00393982
throughput change = 0.0251256
Class 0:
Packet latency average = 20.1784
	minimum = 7
	maximum = 48
Network latency average = 20.1784
	minimum = 7
	maximum = 48
Slowest packet = 29820
Flit latency average = 20.2171
	minimum = 7
	maximum = 48
Slowest flit = 29820
Fragmentation average = 0
	minimum = 0
	maximum = 0
Injected packet rate average = 0.0489167
	minimum = 0.0406667 (at node 6)
	maximum = 0.0593333 (at node 7)
Accepted packet rate average = 0.049125
	minimum = 0.042 (at node 5)
	maximum = 0.0553333 (at node 7)
Injected flit rate average = 0.0489167
	minimum = 0.0406667 (at node 6)
	maximum = 0.0593333 (at node 7)
Accepted flit rate average= 0.049125
	minimum = 0.042 (at node 5)
	maximum = 0.0553333 (at node 7)
Injected packet length average = 1
Accepted packet length average = 1
Total in-flight flits = 14 (14 measured)
latency change    = 0.00786711
throughput change = 0.0127226
Class 0:
Packet latency average = 20.1522
	minimum = 7
	maximum = 48
Network latency average = 20.1522
	minimum = 7
	maximum = 48
Slowest packet = 29820
Flit latency average = 20.1824
	minimum = 7
	maximum = 48
Slowest flit = 29820
Fragmentation average = 0
	minimum = 0
	maximum = 0
Injected packet rate average = 0.0476562
	minimum = 0.043 (at node 14)
	maximum = 0.0555 (at node 7)
Accepted packet rate average = 0.047625
	minimum = 0.042 (at node 5)
	maximum = 0.0555 (at node 7)
Injected flit rate average = 0.0476562
	minimum = 0.043 (at node 14)
	maximum = 0.0555 (at node 7)
Accepted flit rate average= 0.047625
	minimum = 0.042 (at node 5)
	maximum = 0.0555 (at node 7)
Injected packet length average = 1
Accepted packet length average = 1
Total in-flight flits = 20 (20 measured)
latency change    = 0.00130452
throughput change = 0.0314961
Draining all recorded packets ...
Draining remaining packets ...
Time taken is 3553 cycles
Class 0:
Packet latency average = 20.0838
	minimum = 7
	maximum = 48
Network latency average = 20.0838
	minimum = 7
	maximum = 48
Slowest packet = 31189
Flit latency average = 20.0838
	minimum = 7
	maximum = 48
Slowest flit = 31189
Fragmentation average = 0
	minimum = 0
	maximum = 0
Injected packet rate average = 0.0505
	minimum = 0.028 (at node 15)
	maximum = 0.068 (at node 6)
Accepted packet rate average = 0.04775
	minimum = 0.034 (at node 10)
	maximum = 0.062 (at node 1)
Injected flit rate average = 0.0505
	minimum = 0.028 (at node 15)
	maximum = 0.068 (at node 6)
Accepted flit rate average= 0.04775
	minimum = 0.034 (at node 10)
	maximum = 0.062 (at node 1)
Injected packet length average = 1
Accepted packet length average = 1
Total in-flight flits = 22 (0 measured)
latency change    = 1
throughput change = 1
Class 0:
Packet latency average = 19.9771
	minimum = 7
	maximum = 48
Network latency average = 19.9771
	minimum = 7
	maximum = 48
Slowest packet = 31189
Flit latency average = 19.9771
	minimum = 7
	maximum = 48
Slowest flit = 31189
Fragmentation average = 0
	minimum = 0
	maximum = 0
Injected packet rate average = 0.049875
	minimum = 0.033 (at node 15)
	maximum = 0.064 (at node 1)
Accepted packet rate average = 0.049125
	minimum = 0.035 (at node 10)
	maximum = 0.059 (at node 1)
Injected flit rate average = 0.049875
	minimum = 0.033 (at node 15)
	maximum = 0.064 (at node 1)
Accepted flit rate average= 0.049125
	minimum = 0.035 (at node 10)
	maximum = 0.059 (at node 1)
Injected packet length average = 1
Accepted packet length average = 1
Total in-flight flits = 12 (0 measured)
latency change    = 0.00533963
throughput change = 0.0279898
Class 0:
Packet latency average = 19.5514
	minimum = 7
	maximum = 39
Network latency average = 19.5514
	minimum = 7
	maximum = 39
Slowest packet = 32037
Flit latency average = 19.5514
	minimum = 7
	maximum = 39
Slowest flit = 32037
Fragmentation average = 0
	minimum = 0
	maximum = 0
Injected packet rate average = 0.051
	minimum = 0.034 (at node 13)
	maximum = 0.066 (at node 12)
Accepted packet rate average = 0.049875
	minimum = 0.024 (at node 14)
	maximum = 0.068 (at node 6)
Injected flit rate average = 0.051
	minimum = 0.034 (at node 13)
	maximum = 0.066 (at node 12)
Accepted flit rate average= 0.049875
	minimum = 0.024 (at node 14)
	maximum = 0.068 (at node 6)
Injected packet length average = 1
Accepted packet length average = 1
Total in-flight flits = 21 (0 measured)
latency change    = 0.0217745
throughput change = 0.0150376
Warmed up ...Time used is 1500 cycles
Class 0:
Packet latency average = 19.8
	minimum = 7
	maximum = 46
Network latency average = 19.8
	minimum = 7
	maximum = 46
Slowest packet = 32194
Flit latency average = 19.9211
	minimum = 7
	maximum = 46
Slowest flit = 32194
Fragmentation average = 0
	minimum = 0
	maximum = 0
Injected packet rate average = 0.0535
	minimum = 0.042 (at node 14)
	maximum = 0.07 (at node 4)
Accepted packet rate average = 0.053875
	minimum = 0.034 (at node 3)
	maximum = 0.068 (at node 2)
Injected flit rate average = 0.0535
	minimum = 0.042 (at node 14)
	maximum = 0.07 (at node 4)
Accepted flit rate average= 0.053875
	minimum = 0.034 (at node 3)
	maximum = 0.068 (at node 2)
Injected packet length average = 1
Accepted packet length average = 1
Total in-flight flits = 18 (18 measured)
latency change    = 0.0125566
throughput change = 0.0742459
Class 0:
Packet latency average = 19.9229
	minimum = 7
	maximum = 46
Network latency average = 19.9229
	minimum = 7
	maximum = 46
Slowest packet = 32194
Flit latency average = 19.985
	minimum = 7
	maximum = 46
Slowest flit = 32194
Fragmentation average = 0
	minimum = 0
	maximum = 0
Injected packet rate average = 0.0495625
	minimum = 0.037 (at node 13)
	maximum = 0.061 (at node 15)
Accepted packet rate average = 0.0499375
	minimum = 0.04 (at node 3)
	maximum = 0.058 (at node 5)
Injected flit rate average = 0.0495625
	minimum = 0.037 (at node 13)
	maximum = 0.061 (at node 15)
Accepted flit rate average= 0.0499375
	minimum = 0.04 (at node 3)
	maximum = 0.058 (at node 5)
Injected packet length average = 1
Accepted packet length average = 1
Total in-flight flits = 15 (15 measured)
latency change    = 0.00616774
throughput change = 0.0788486
Class 0:
Packet latency average = 20.0768
	minimum = 7
	maximum = 52
Network latency average = 20.0768
	minimum = 7
	maximum = 52
Slowest packet = 32948
Flit latency average = 20.1153
	minimum = 7
	maximum = 52
Slowest flit = 32948
Fragmentation average = 0
	minimum = 0
	maximum = 0
Injected packet rate average = 0.0500833
	minimum = 0.0406667 (at node 2)
	maximum = 0.0626667 (at node 15)
Accepted packet rate average = 0.05025
	minimum = 0.0426667 (at node 3)
	maximum = 0.058 (at node 8)
Injected flit rate average = 0.0500833
	minimum = 0.0406667 (at node 2)
	maximum = 0.0626667 (at node 15)
Accepted flit rate average= 0.05025
	minimum = 0.0426667 (at node 3)
	maximum = 0.058 (at node 8)
Injected packet length average = 1
Accepted packet length average = 1
Total in-flight flits = 17 (17 measured)
latency change    = 0.00766627
throughput change = 0.00621891
Class 0:
Packet latency average = 20.0829
	minimum = 7
	maximum = 52
Network latency average = 20.0829
	minimum = 7
	maximum = 52
Slowest packet = 32948
Flit latency average = 20.1119
	minimum = 7
	maximum = 52
Slowest flit = 32948
Fragmentation average = 0
	minimum = 0
	maximum = 0
Injected packet rate average = 0.049625
	minimum = 0.04 (at node 5)
	maximum = 0.059 (at node 8)
Accepted packet rate average = 0.0496875
	minimum = 0.043 (at node 3)
	maximum = 0.0545 (at node 4)
Injected flit rate average = 0.049625
	minimum = 0.04 (at node 5)
	maximum = 0.059 (at node 8)
Accepted flit rate average= 0.0496875
	minimum = 0.043 (at node 3)
	maximum = 0.0545 (at node 4)
Injected packet length average = 1
Accepted packet length average = 1
Total in-flight flits = 19 (19 measured)
latency change    = 0.000301853
throughput change = 0.0113208
Class 0:
Packet latency average = 19.9772
	minimum = 7
	maximum = 52
Network latency average = 19.9772
	minimum = 7
	maximum = 52
Slowest packet = 32948
Flit latency average = 20.002
	minimum = 7
	maximum = 52
Slowest flit = 32948
Fragmentation average = 0
	minimum = 0
	maximum = 0
Injected packet rate average = 0.04865
	minimum = 0.0424 (at node 5)
	maximum = 0.0544 (at node 8)
Accepted packet rate average = 0.0488
	minimum = 0.0412 (at node 3)
	maximum = 0.0544 (at node 9)
Injected flit rate average = 0.04865
	minimum = 0.0424 (at node 5)
	maximum = 0.0544 (at node 8)
Accepted flit rate average= 0.0488
	minimum = 0.0412 (at node 3)
	maximum = 0.0544 (at node 9)
Injected packet length average = 1
Accepted packet length average = 1
Total in-flight flits = 15 (15 measured)
latency change    = 0.0052881
throughput change = 0.0181865
Draining all recorded packets ...
Draining remaining packets ...
Time taken is 4050 cycles
Class 0:
Packet latency average = 20.1521
	minimum = 7
	maximum = 48
Network latency average = 20.1521
	minimum = 7
	maximum = 48
Slowest packet = 34363
Flit latency average = 20.1521
	minimum = 7
	maximum = 48
Slowest flit = 34363
Fragmentation average = 0
	minimum = 0
	maximum = 0
Injected packet rate average = 0.051625
	minimum = 0.042 (at node 7)
	maximum = 0.064 (at node 6)
Accepted packet rate average = 0.0485
	minimum = 0.032 (at node 15)
	maximum = 0.078 (at node 12)
Injected flit rate average = 0.051625
	minimum = 0.042 (at node 7)
	maximum = 0.064 (at node 6)
Accepted flit rate average= 0.0485
	minimum = 0.032 (at node 15)
	maximum = 0.078 (at node 12)
Injected packet length average = 1
Accepted packet length average = 1
Total in-flight flits = 25 (0 measured)
latency change    = 1
throughput change = 1
Class 0:
Packet latency average = 19.9132
	minimum = 7
	maximum = 48
Network latency average = 19.9132
	minimum = 7
	maximum = 48
Slowest packet = 34363
Flit latency average = 19.9132
	minimum = 7
	maximum = 48
Slowest flit = 34363
Fragmentation average = 0
	minimum = 0
	maximum = 0
Injected packet rate average = 0.0519375
	minimum = 0.04 (at node 9)
	maximum = 0.064 (at node 5)
Accepted packet rate average = 0.051125
	minimum = 0.041 (at node 2)
	maximum = 0.071 (at node 12)
Injected flit rate average = 0.0519375
	minimum = 0.04 (at node 9)
	maximum = 0.064 (at node 5)
Accepted flit rate average= 0.051125
	minimum = 0.041 (at node 2)
	maximum = 0.071 (at node 12)
Injected packet length average = 1
Accepted packet length average = 1
Total in-flight flits = 13 (0 measured)
latency change    = 0.011995
throughput change = 0.0513447
Class 0:
Packet latency average = 19.9877
	minimum = 7
	maximum = 37
Network latency average = 19.9852
	minimum = 7
	maximum = 37
Slowest packet = 34979
Flit latency average = 19.9852
	minimum = 7
	maximum = 37
Slowest flit = 34979
Fragmentation average = 0
	minimum = 0
	maximum = 0
Injected packet rate average = 0.050625
	minimum = 0.036 (at node 3)
	maximum = 0.07 (at node 4)
Accepted packet rate average = 0.05075
	minimum = 0.034 (at node 6)
	maximum = 0.072 (at node 8)
Injected flit rate average = 0.050625
	minimum = 0.036 (at node 3)
	maximum = 0.07 (at node 4)
Accepted flit rate average= 0.05075
	minimum = 0.034 (at node 6)
	maximum = 0.072 (at node 8)
Injected packet length average = 1
Accepted packet length average = 1
Total in-flight flits = 12 (0 measured)
latency change    = 0.00372638
throughput change = 0.00738916
Warmed up ...Time used is 1500 cycles
Class 0:
Packet latency average = 19.8564
	minimum = 7
	maximum = 43
Network latency average = 19.8564
	minimum = 7
	maximum = 43
Slowest packet = 35635
Flit latency average = 19.9204
	minimum = 7
	maximum = 43
Slowest flit = 35635
Fragmentation average = 0
	minimum = 0
	maximum = 0
Injected packet rate average = 0.051
	minimum = 0.038 (at node 8)
	maximum = 0.07 (at node 4)
Accepted packet rate average = 0.05025
	minimum = 0.03 (at node 9)
	maximum = 0.068 (at node 13)
Injected flit rate average = 0.051
	minimum = 0.038 (at node 8)
	maximum = 0.07 (at node 4)
Accepted flit rate average= 0.05025
	minimum = 0.03 (at node 9)
	maximum = 0.068 (at node 13)
Injected packet length average = 1
Accepted packet length average = 1
Total in-flight flits = 18 (18 measured)
latency change    = 0.00661119
throughput change = 0.00995025
Class 0:
Packet latency average = 20.0262
	minimum = 7
	maximum = 43
Network latency average = 20.0262
	minimum = 7
	maximum = 43
Slowest packet = 35635
Flit latency average = 20.0552
	minimum = 7
	maximum = 43
Slowest flit = 35635
Fragmentation average = 0
	minimum = 0
	maximum = 0
Injected packet rate average = 0.0510625
	minimum = 0.041 (at node 2)
	maximum = 0.06 (at node 1)
Accepted packet rate average = 0.0509375
	minimum = 0.034 (at node 2)
	maximum = 0.065 (at node 13)
Injected flit rate average = 0.0510625
	minimum = 0.041 (at node 2)
	maximum = 0.06 (at node 1)
Accepted flit rate average= 0.0509375
	minimum = 0.034 (at node 2)
	maximum = 0.065 (at node 13)
Injected packet length average = 1
Accepted packet length average = 1
Total in-flight flits = 14 (14 measured)
latency change    = 0.008476
throughput change = 0.0134969
Class 0:
Packet latency average = 19.9424
	minimum = 7
	maximum = 43
Network latency average = 19.9424
	minimum = 7
	maximum = 43
Slowest packet = 35635
Flit latency average = 19.9628
	minimum = 7
	maximum = 43
Slowest flit = 35635
Fragmentation average = 0
	minimum = 0
	maximum = 0
Injected packet rate average = 0.0506667
	minimum = 0.0446667 (at node 2)
	maximum = 0.0626667 (at node 1)
Accepted packet rate average = 0.050375
	minimum = 0.0366667 (at node 2)
	maximum = 0.0593333 (at node 15)
Injected flit rate average = 0.0506667
	minimum = 0.0446667 (at node 2)
	maximum = 0.0626667 (at node 1)
Accepted flit rate average= 0.050375
	minimum = 0.0366667 (at node 2)
	maximum = 0.0593333 (at node 15)
Injected packet length average = 1
Accepted packet length average = 1
Total in-flight flits = 19 (19 measured)
latency change    = 0.00420191
throughput change = 0.0111663
Draining all recorded packets ...
Draining remaining packets ...
Time taken is 3061 cycles
Class 0:
Packet latency average = 19.7665
	minimum = 7
	maximum = 37
Network latency average = 19.7665
	minimum = 7
	maximum = 37
Slowest packet = 36623
Flit latency average = 19.7665
	minimum = 7
	maximum = 37
Slowest flit = 36623
Fragmentation average = 0
	minimum = 0
	maximum = 0
Injected packet rate average = 0.051125
	minimum = 0.04 (at node 0)
	maximum = 0.066 (at node 14)
Accepted packet rate average = 0.04925
	minimum = 0.038 (at node 9)
	maximum = 0.06 (at node 3)
Injected flit rate average = 0.051125
	minimum = 0.04 (at node 0)
	maximum = 0.066 (at node 14)
Accepted flit rate average= 0.04925
	minimum = 0.038 (at node 9)
	maximum = 0.06 (at node 3)
Injected packet length average = 1
Accepted packet length average = 1
Total in-flight flits = 15 (0 measured)
latency change    = 1
throughput change = 1
Class 0:
Packet latency average = 19.7174
	minimum = 7
	maximum = 39
Network latency average = 19.7174
	minimum = 7
	maximum = 39
Slowest packet = 37276
[...]
	minimum = 0
	maximum = 0
Injected packet rate average = 0.0457083
	minimum = 0.036 (at node 15)
	maximum = 0.0553333 (at node 1)
Accepted packet rate average = 0.0454167
	minimum = 0.0353333 (at node 0)
	maximum = 0.054 (at node 1)
Injected flit rate average = 0.0457083
	minimum = 0.036 (at node 15)
	maximum = 0.0553333 (at node 1)
Accepted flit rate average= 0.0454167
	minimum = 0.0353333 (at node 0)
	maximum = 0.054 (at node 1)
Injected packet length average = 1
Accepted packet length average = 1
Total in-flight flits = 22 (22 measured)
latency change    = 0.00562515
throughput change = 0.00366972
Class 0:
Packet latency average = 19.7507
	minimum = 7
	maximum = 47
Network latency average = 19.7507
	minimum = 7
	maximum = 47
Slowest packet = 129732
Flit latency average = 19.7894
	minimum = 7
	maximum = 47
Slowest flit = 129732
Fragmentation average = 0
	minimum = 0
	maximum = 0
Injected packet rate average = 0.0465313
	minimum = 0.0365 (at node 15)
	maximum = 0.055 (at node 5)
Accepted packet rate average = 0.0465938
	minimum = 0.0355 (at node 0)
	maximum = 0.0535 (at node 15)
Injected flit rate average = 0.0465313
	minimum = 0.0365 (at node 15)
	maximum = 0.055 (at node 5)
Accepted flit rate average= 0.0465938
	minimum = 0.0355 (at node 0)
	maximum = 0.0535 (at node 15)
Injected packet length average = 1
Accepted packet length average = 1
Total in-flight flits = 13 (13 measured)
latency change    = 0.000613305
throughput change = 0.0252627
Draining all recorded packets ...
Draining remaining packets ...
Time taken is 3553 cycles
Class 0:
Packet latency average = 20.3315
	minimum = 7
	maximum = 39
Network latency average = 20.3315
	minimum = 7
	maximum = 39
Slowest packet = 130220
Flit latency average = 20.3315
	minimum = 7
	maximum = 39
Slowest flit = 130220
Fragmentation average = 0
	minimum = 0
	maximum = 0
Injected packet rate average = 0.047875
	minimum = 0.028 (at node 7)
	maximum = 0.068 (at node 10)
Accepted packet rate average = 0.045625
	minimum = 0.03 (at node 11)
	maximum = 0.064 (at node 6)
Injected flit rate average = 0.047875
	minimum = 0.028 (at node 7)
	maximum = 0.068 (at node 10)
Accepted flit rate average= 0.045625
	minimum = 0.03 (at node 11)
	maximum = 0.064 (at node 6)
Injected packet length average = 1
Accepted packet length average = 1
Total in-flight flits = 18 (0 measured)
latency change    = 1
throughput change = 1
Class 0:
Packet latency average = 20.2417
	minimum = 7
	maximum = 44
Network latency average = 20.2417
	minimum = 7
	maximum = 44
Slowest packet = 130788
Flit latency average = 20.2417
	minimum = 7
	maximum = 44
Slowest flit = 130788
Fragmentation average = 0
	minimum = 0
	maximum = 0
Injected packet rate average = 0.047625
	minimum = 0.036 (at node 7)
	maximum = 0.059 (at node 10)
Accepted packet rate average = 0.0468125
	minimum = 0.038 (at node 13)
	maximum = 0.059 (at node 6)
Injected flit rate average = 0.047625
	minimum = 0.036 (at node 7)
	maximum = 0.059 (at node 10)
Accepted flit rate average= 0.0468125
	minimum = 0.038 (at node 13)
	maximum = 0.059 (at node 6)
Injected packet length average = 1
Accepted packet length average = 1
Total in-flight flits = 13 (0 measured)
latency change    = 0.00443893
throughput change = 0.0253672
Class 0:
Packet latency average = 20.1981
	minimum = 7
	maximum = 45
Network latency average = 20.1981
	minimum = 7
	maximum = 45
Slowest packet = 130941
Flit latency average = 20.1981
	minimum = 7
	maximum = 45
Slowest flit = 130941
Fragmentation average = 0
	minimum = 0
	maximum = 0
Injected packet rate average = 0.0535
	minimum = 0.032 (at node 8)
	maximum = 0.068 (at node 3)
Accepted packet rate average = 0.053625
	minimum = 0.036 (at node 0)
	maximum = 0.076 (at node 6)
Injected flit rate average = 0.0535
	minimum = 0.032 (at node 8)
	maximum = 0.068 (at node 3)
Accepted flit rate average= 0.053625
	minimum = 0.036 (at node 0)
	maximum = 0.076 (at node 6)
Injected packet length average = 1
Accepted packet length average = 1
Total in-flight flits = 12 (0 measured)
latency change    = 0.00215467
throughput change = 0.12704
Warmed up ...Time used is 1500 cycles
Class 0:
Packet latency average = 20.1857
	minimum = 7
	maximum = 41
Network latency average = 20.1857
	minimum = 7
	maximum = 41
Slowest packet = 131619
Flit latency average = 20.2185
	minimum = 7
	maximum = 41
Slowest flit = 131619
Fragmentation average = 0
	minimum = 0
	maximum = 0
Injected packet rate average = 0.049
	minimum = 0.032 (at node 9)
	maximum = 0.062 (at node 14)
Accepted packet rate average = 0.048625
	minimum = 0.034 (at node 3)
	maximum = 0.062 (at node 11)
Injected flit rate average = 0.049
	minimum = 0.032 (at node 9)
	maximum = 0.062 (at node 14)
Accepted flit rate average= 0.048625
	minimum = 0.034 (at node 3)
	maximum = 0.062 (at node 11)
Injected packet length average = 1
Accepted packet length average = 1
Total in-flight flits = 15 (15 measured)
latency change    = 0.00061721
throughput change = 0.102828
Class 0:
Packet latency average = 20.2224
	minimum = 7
	maximum = 48
Network latency average = 20.2224
	minimum = 7
	maximum = 48
Slowest packet = 131846
Flit latency average = 20.2378
	minimum = 7
	maximum = 48
Slowest flit = 131846
Fragmentation average = 0
	minimum = 0
	maximum = 0
Injected packet rate average = 0.05
	minimum = 0.037 (at node 9)
	maximum = 0.057 (at node 14)
Accepted packet rate average = 0.0499375
	minimum = 0.041 (at node 3)
	maximum = 0.058 (at node 1)
Injected flit rate average = 0.05
	minimum = 0.037 (at node 9)
	maximum = 0.057 (at node 14)
Accepted flit rate average= 0.0499375
	minimum = 0.041 (at node 3)
	maximum = 0.058 (at node 1)
Injected packet length average = 1
Accepted packet length average = 1
Total in-flight flits = 13 (13 measured)
latency change    = 0.00181418
throughput change = 0.0262829
Class 0:
Packet latency average = 19.9966
	minimum = 7
	maximum = 48
Network latency average = 19.9966
	minimum = 7
	maximum = 48
Slowest packet = 131846
Flit latency average = 20.0092
	minimum = 7
	maximum = 48
Slowest flit = 131846
Fragmentation average = 0
	minimum = 0
	maximum = 0
Injected packet rate average = 0.04975
	minimum = 0.0366667 (at node 9)
	maximum = 0.0566667 (at node 2)
Accepted packet rate average = 0.0498333
	minimum = 0.0426667 (at node 6)
	maximum = 0.0573333 (at node 10)
Injected flit rate average = 0.04975
	minimum = 0.0366667 (at node 9)
	maximum = 0.0566667 (at node 2)
Accepted flit rate average= 0.0498333
	minimum = 0.0426667 (at node 6)
	maximum = 0.0573333 (at node 10)
Injected packet length average = 1
Accepted packet length average = 1
Total in-flight flits = 10 (10 measured)
latency change    = 0.011289
throughput change = 0.0020903
Class 0:
Packet latency average = 19.9867
	minimum = 7
	maximum = 48
Network latency average = 19.9867
	minimum = 7
	maximum = 48
Slowest packet = 131846
Flit latency average = 19.9962
	minimum = 7
	maximum = 48
Slowest flit = 131846
Fragmentation average = 0
	minimum = 0
	maximum = 0
Injected packet rate average = 0.0499375
	minimum = 0.0425 (at node 9)
	maximum = 0.055 (at node 14)
Accepted packet rate average = 0.0496562
	minimum = 0.0445 (at node 14)
	maximum = 0.055 (at node 10)
Injected flit rate average = 0.0499375
	minimum = 0.0425 (at node 9)
	maximum = 0.055 (at node 14)
Accepted flit rate average= 0.0496562
	minimum = 0.0445 (at node 14)
	maximum = 0.055 (at node 10)
Injected packet length average = 1
Accepted packet length average = 1
Total in-flight flits = 21 (21 measured)
latency change    = 0.000497233
throughput change = 0.00356618
Draining all recorded packets ...
Draining remaining packets ...
Time taken is 3566 cycles
Class 0:
Packet latency average = 19.3816
	minimum = 7
	maximum = 39
Network latency average = 19.3816
	minimum = 7
	maximum = 39
Slowest packet = 133321
Flit latency average = 19.3816
	minimum = 7
	maximum = 39
Slowest flit = 133321
Fragmentation average = 0
	minimum = 0
	maximum = 0
Injected packet rate average = 0.047625
	minimum = 0.038 (at node 6)
	maximum = 0.06 (at node 5)
Accepted packet rate average = 0.044875
	minimum = 0.026 (at node 4)
	maximum = 0.066 (at node 0)
Injected flit rate average = 0.047625
	minimum = 0.038 (at node 6)
	maximum = 0.06 (at node 5)
Accepted flit rate average= 0.044875
	minimum = 0.026 (at node 4)
	maximum = 0.066 (at node 0)
Injected packet length average = 1
Accepted packet length average = 1
Total in-flight flits = 22 (0 measured)
latency change    = 1
throughput change = 1
Class 0:
Packet latency average = 19.309
	minimum = 7
	maximum = 41
Network latency average = 19.309
	minimum = 7
	maximum = 41
Slowest packet = 133564
Flit latency average = 19.309
	minimum = 7
	maximum = 41
Slowest flit = 133564
Fragmentation average = 0
	minimum = 0
	maximum = 0
Injected packet rate average = 0.0498125
	minimum = 0.044 (at node 0)
	maximum = 0.059 (at node 10)
Accepted packet rate average = 0.04875
	minimum = 0.039 (at node 2)
	maximum = 0.057 (at node 0)
Injected flit rate average = 0.0498125
	minimum = 0.044 (at node 0)
	maximum = 0.059 (at node 10)
Accepted flit rate average= 0.04875
	minimum = 0.039 (at node 2)
	maximum = 0.057 (at node 0)
Injected packet length average = 1
Accepted packet length average = 1
Total in-flight flits = 17 (0 measured)
latency change    = 0.00376205
throughput change = 0.0794872
Class 0:
Packet latency average = 19.5831
	minimum = 7
	maximum = 42
Network latency average = 19.5831
	minimum = 7
	maximum = 42
Slowest packet = 134125
Flit latency average = 19.5831
	minimum = 7
	maximum = 42
Slowest flit = 134125
Fragmentation average = 0
	minimum = 0
	maximum = 0
Injected packet rate average = 0.056625
	minimum = 0.046 (at node 2)
	maximum = 0.076 (at node 14)
Accepted packet rate average = 0.056375
	minimum = 0.042 (at node 11)
	maximum = 0.074 (at node 3)
Injected flit rate average = 0.056625
	minimum = 0.046 (at node 2)
	maximum = 0.076 (at node 14)
Accepted flit rate average= 0.056375
	minimum = 0.042 (at node 11)
	maximum = 0.074 (at node 3)
Injected packet length average = 1
Accepted packet length average = 1
Total in-flight flits = 19 (0 measured)
latency change    = 0.0140005
throughput change = 0.135255
Warmed up ...Time used is 1500 cycles
Class 0:
Packet latency average = 20.2437
	minimum = 7
	maximum = 39
Network latency average = 20.2437
	minimum = 7
	maximum = 39
Slowest packet = 134383
Flit latency average = 20.1477
	minimum = 7
	maximum = 39
Slowest flit = 134383
Fragmentation average = 0
	minimum = 0
	maximum = 0
Injected packet rate average = 0.051
	minimum = 0.038 (at node 13)
	maximum = 0.072 (at node 2)
Accepted packet rate average = 0.051625
	minimum = 0.038 (at node 0)
	maximum = 0.07 (at node 10)
Injected flit rate average = 0.051
	minimum = 0.038 (at node 13)
	maximum = 0.072 (at node 2)
Accepted flit rate average= 0.051625
	minimum = 0.038 (at node 0)
	maximum = 0.07 (at node 10)
Injected packet length average = 1
Accepted packet length average = 1
Total in-flight flits = 14 (14 measured)
latency change    = 0.0326278
throughput change = 0.0920097
Class 0:
Packet latency average = 19.9693
	minimum = 7
	maximum = 53
Network latency average = 19.9693
	minimum = 7
	maximum = 53
Slowest packet = 134719
Flit latency average = 19.928
	minimum = 7
	maximum = 53
Slowest flit = 134719
Fragmentation average = 0
	minimum = 0
	maximum = 0
Injected packet rate average = 0.05175
	minimum = 0.041 (at node 5)
	maximum = 0.067 (at node 2)
Accepted packet rate average = 0.0520625
	minimum = 0.044 (at node 0)
	maximum = 0.064 (at node 10)
Injected flit rate average = 0.05175
	minimum = 0.041 (at node 5)
	maximum = 0.067 (at node 2)
Accepted flit rate average= 0.0520625
	minimum = 0.044 (at node 0)
	maximum = 0.064 (at node 10)
Injected packet length average = 1
Accepted packet length average = 1
Total in-flight flits = 14 (14 measured)
latency change    = 0.0137395
throughput change = 0.00840336
Class 0:
Packet latency average = 20.1279
	minimum = 7
	maximum = 53
Network latency average = 20.1279
	minimum = 7
	maximum = 53
Slowest packet = 134719
Flit latency average = 20.0975
	minimum = 7
	maximum = 53
Slowest flit = 134719
Fragmentation average = 0
	minimum = 0
	maximum = 0
Injected packet rate average = 0.0510417
	minimum = 0.0386667 (at node 1)
	maximum = 0.0626667 (at node 15)
Accepted packet rate average = 0.0512917
	minimum = 0.044 (at node 2)
	maximum = 0.0653333 (at node 10)
Injected flit rate average = 0.0510417
	minimum = 0.0386667 (at node 1)
	maximum = 0.0626667 (at node 15)
Accepted flit rate average= 0.0512917
	minimum = 0.044 (at node 2)
	maximum = 0.0653333 (at node 10)
Injected packet length average = 1
Accepted packet length average = 1
Total in-flight flits = 13 (13 measured)
latency change    = 0.00787963
throughput change = 0.0150284
Class 0:
Packet latency average = 20.1052
	minimum = 7
	maximum = 55
Network latency average = 20.1052
	minimum = 7
	maximum = 55
Slowest packet = 135680
Flit latency average = 20.0824
	minimum = 7
	maximum = 55
Slowest flit = 135680
Fragmentation average = 0
	minimum = 0
	maximum = 0
Injected packet rate average = 0.0506562
	minimum = 0.039 (at node 1)
	maximum = 0.0595 (at node 15)
Accepted packet rate average = 0.0508125
	minimum = 0.039 (at node 14)
	maximum = 0.061 (at node 10)
Injected flit rate average = 0.0506562
	minimum = 0.039 (at node 1)
	maximum = 0.0595 (at node 15)
Accepted flit rate average= 0.0508125
	minimum = 0.039 (at node 14)
	maximum = 0.061 (at node 10)
Injected packet length average = 1
Accepted packet length average = 1
Total in-flight flits = 14 (14 measured)
latency change    = 0.0011302
throughput change = 0.00943009
Draining all recorded packets ...
Draining remaining packets ...
Time taken is 3547 cycles
Class 0:
Packet latency average = 19.6368
	minimum = 7
	maximum = 46
Network latency average = 19.6368
	minimum = 7
	maximum = 46
Slowest packet = 135986
Flit latency average = 19.6368
	minimum = 7
	maximum = 46
Slowest flit = 135986
Fragmentation average = 0
	minimum = 0
	maximum = 0
Injected packet rate average = 0.054125
	minimum = 0.046 (at node 4)
	maximum = 0.07 (at node 5)
Accepted packet rate average = 0.051625
	minimum = 0.036 (at node 1)
	maximum = 0.066 (at node 3)
Injected flit rate average = 0.054125
	minimum = 0.046 (at node 4)
	maximum = 0.07 (at node 5)
Accepted flit rate average= 0.051625
	minimum = 0.036 (at node 1)
	maximum = 0.066 (at node 3)
Injected packet length average = 1
Accepted packet length average = 1
Total in-flight flits = 20 (0 measured)
latency change    = 1
throughput change = 1
Class 0:
Packet latency average = 20.1813
	minimum = 7
	maximum = 46
Network latency average = 20.1813
	minimum = 7
	maximum = 46
Slowest packet = 135986
Flit latency average = 20.1813
	minimum = 7
	maximum = 46
Slowest flit = 135986
Fragmentation average = 0
	minimum = 0
	maximum = 0
Injected packet rate average = 0.051625
	minimum = 0.041 (at node 7)
	maximum = 0.059 (at node 5)
Accepted packet rate average = 0.0506875
	minimum = 0.036 (at node 8)
	maximum = 0.068 (at node 3)
Injected flit rate average = 0.051625
	minimum = 0.041 (at node 7)
	maximum = 0.059 (at node 5)
Accepted flit rate average= 0.0506875
	minimum = 0.036 (at node 8)
	maximum = 0.068 (at node 3)
Injected packet length average = 1
Accepted packet length average = 1
Total in-flight flits = 15 (0 measured)
latency change    = 0.0269782
throughput change = 0.0184957
Class 0:
Packet latency average = 20.4753
	minimum = 7
	maximum = 45
Network latency average = 20.4753
	minimum = 7
	maximum = 45
Slowest packet = 136680
Flit latency average = 20.4753
	minimum = 7
	maximum = 45
Slowest flit = 136680
Fragmentation average = 0
	minimum = 0
	maximum = 0
Injected packet rate average = 0.048125
	minimum = 0.038 (at node 4)
	maximum = 0.064 (at node 5)
Accepted packet rate average = 0.048125
	minimum = 0.036 (at node 10)
	maximum = 0.058 (at node 8)
Injected flit rate average = 0.048125
	minimum = 0.038 (at node 4)
	maximum = 0.064 (at node 5)
Accepted flit rate average= 0.048125
	minimum = 0.036 (at node 10)
	maximum = 0.058 (at node 8)
Injected packet length average = 1
Accepted packet length average = 1
Total in-flight flits = 15 (0 measured)
latency change    = 0.014362
throughput change = 0.0532468
Warmed up ...Time used is 1500 cycles
Class 0:
Packet latency average = 20.6782
	minimum = 7
	maximum = 40
Network latency average = 20.6782
	minimum = 7
	maximum = 40
Slowest packet = 137116
Flit latency average = 20.8389
	minimum = 7
	maximum = 40
Slowest flit = 137116
Fragmentation average = 0
	minimum = 0
	maximum = 0
Injected packet rate average = 0.048
	minimum = 0.03 (at node 9)
	maximum = 0.066 (at node 10)
Accepted packet rate average = 0.048875
	minimum = 0.036 (at node 9)
	maximum = 0.064 (at node 0)
Injected flit rate average = 0.048
	minimum = 0.03 (at node 9)
	maximum = 0.066 (at node 10)
Accepted flit rate average= 0.048875
	minimum = 0.036 (at node 9)
	maximum = 0.064 (at node 0)
Injected packet length average = 1
Accepted packet length average = 1
Total in-flight flits = 8 (8 measured)
latency change    = 0.00981067
throughput change = 0.0153453
Class 0:
Packet latency average = 20.2672
	minimum = 7
	maximum = 41
Network latency average = 20.2672
	minimum = 7
	maximum = 41
Slowest packet = 137696
Flit latency average = 20.3567
	minimum = 7
	maximum = 41
Slowest flit = 137696
Fragmentation average = 0
	minimum = 0
	maximum = 0
Injected packet rate average = 0.048375
	minimum = 0.03 (at node 9)
	maximum = 0.059 (at node 13)
Accepted packet rate average = 0.0481875
	minimum = 0.04 (at node 8)
	maximum = 0.055 (at node 11)
Injected flit rate average = 0.048375
	minimum = 0.03 (at node 9)
	maximum = 0.059 (at node 13)
Accepted flit rate average= 0.0481875
	minimum = 0.04 (at node 8)
	maximum = 0.055 (at node 11)
Injected packet length average = 1
Accepted packet length average = 1
Total in-flight flits = 18 (18 measured)
latency change    = 0.0202789
throughput change = 0.0142672
Class 0:
Packet latency average = 20.1016
	minimum = 7
	maximum = 46
Network latency average = 20.1016
	minimum = 7
	maximum = 46
Slowest packet = 137908
Flit latency average = 20.1614
	minimum = 7
	maximum = 46
Slowest flit = 137908
Fragmentation average = 0
	minimum = 0
	maximum = 0
Injected packet rate average = 0.0502083
	minimum = 0.0333333 (at node 9)
	maximum = 0.062 (at node 10)
Accepted packet rate average = 0.0498333
	minimum = 0.0393333 (at node 8)
	maximum = 0.0546667 (at node 7)
Injected flit rate average = 0.0502083
	minimum = 0.0333333 (at node 9)
	maximum = 0.062 (at node 10)
Accepted flit rate average= 0.0498333
	minimum = 0.0393333 (at node 8)
	maximum = 0.0546667 (at node 7)
Injected packet length average = 1
Accepted packet length average = 1
Total in-flight flits = 24 (24 measured)
latency change    = 0.0082375
throughput change = 0.0330268
Draining all recorded packets ...
Draining remaining packets ...
Time taken is 3067 cycles
====== Overall Traffic Statistics ======
====== Traffic class 0 ======
Packet latency average = 20.0361 (50 samples)
	minimum = 7 (50 samples)
	maximum = 48.16 (50 samples)
Network latency average = 20.036 (50 samples)
	minimum = 7 (50 samples)
	maximum = 48.16 (50 samples)
Flit latency average = 20.062 (50 samples)
	minimum = 7 (50 samples)
	maximum = 49.1 (50 samples)
Fragmentation average = 0 (50 samples)
	minimum = 0 (50 samples)
	maximum = 0 (50 samples)
Injected packet rate average = 0.0499749 (50 samples)
	minimum = 0.0410613 (50 samples)
	maximum = 0.0594113 (50 samples)
Accepted packet rate average = 0.0499784 (50 samples)
	minimum = 0.0408567 (50 samples)
	maximum = 0.0588947 (50 samples)
Injected flit rate average = 0.0499749 (50 samples)
	minimum = 0.0410613 (50 samples)
	maximum = 0.0594113 (50 samples)
Accepted flit rate average = 0.0499784 (50 samples)
	minimum = 0.0408567 (50 samples)
	maximum = 0.0588947 (50 samples)
Injected packet size average = 1 (50 samples)
Accepted packet size average = 1 (50 samples)
Hops average = 3.49768 (50 samples)
Total run time 1.78537
