BEGIN Configuration File: /tmp/tmpf3017tuv.cfg
topology = mesh;
k = 4;
n = 2;
routing_function = planar_adapt;
num_vcs = 4;
vc_buf_size = 4;
wait_for_tail_credit = 1;
vc_allocator = islip;
sw_allocator = islip;
alloc_iters = 1;
credit_delay = 2;
routing_delay = 1;
vc_alloc_delay = 1;
sw_alloc_delay = 1;
input_speedup = 2;
output_speedup = 1;
internal_speedup = 1.0;
traffic = uniform;
packet_size = 1;
sim_type = latency;
injection_rate = 0.01;
warmup_periods = 3;
sample_period = 500;
sim_count = 50;
seed = 2;
link_failures = 2;
fail_seed = 303;

END Configuration File: /tmp/tmpf3017tuv.cfg
failure at node 9, channel 2 (1/2)
failure at node 15, channel 3 (2/2)
Class 0:
Packet latency average = 20.8413
	minimum = 7
	maximum = 52
Network latency average = 20.8413
	minimum = 7
	maximum = 52
Slowest packet = 56
Flit latency average = 20.8413
	minimum = 7
	maximum = 52
Slowest flit = 56
Fragmentation average = 0
	minimum = 0
	maximum = 0
Injected packet rate average = 0.008125
	minimum = 0 (at node 9)
	maximum = 0.014 (at node 5)
Accepted packet rate average = 0.007875
	minimum = 0.002 (at node 5)
	maximum = 0.02 (at node 9)
Injected flit rate average = 0.008125
	minimum = 0 (at node 9)
	maximum = 0.014 (at node 5)
Accepted flit rate average= 0.007875
	minimum = 0.002 (at node 5)
	maximum = 0.02 (at node 9)
Injected packet length average = 1
Accepted packet length average = 1
Total in-flight flits = 2 (0 measured)
latency change    = 1
throughput change = 1
Class 0:
Packet latency average = 20.4091
	minimum = 7
	maximum = 52
Network latency average = 20.4091
	minimum = 7
	maximum = 52
Slowest packet = 56
Flit latency average = 20.4091
	minimum = 7
	maximum = 52
Slowest flit = 56
Fragmentation average = 0
	minimum = 0
	maximum = 0
Injected packet rate average = 0.008625
	minimum = 0.003 (at node 2)
	maximum = 0.015 (at node 13)
Accepted packet rate average = 0.00825
	minimum = 0.004 (at node 6)
	maximum = 0.015 (at node 9)
Injected flit rate average = 0.008625
	minimum = 0.003 (at node 2)
	maximum = 0.015 (at node 13)
Accepted flit rate average= 0.00825
	minimum = 0.004 (at node 6)
	maximum = 0.015 (at node 9)
Injected packet length average = 1
Accepted packet length average = 1
Total in-flight flits = 6 (0 measured)
latency change    = 0.0211758
throughput change = 0.0454545
Class 0:
Packet latency average = 21.8095
	minimum = 7
	maximum = 70
Network latency average = 21.8095
	minimum = 7
	maximum = 70
Slowest packet = 164
Flit latency average = 21.8095
	minimum = 7
	maximum = 70
Slowest flit = 164
Fragmentation average = 0
	minimum = 0
	maximum = 0
Injected packet rate average = 0.01
	minimum = 0.002 (at node 3)
	maximum = 0.022 (at node 13)
Accepted packet rate average = 0.0105
	minimum = 0.006 (at node 5)
	maximum = 0.016 (at node 15)
Injected flit rate average = 0.01
	minimum = 0.002 (at node 3)
	maximum = 0.022 (at node 13)
Accepted flit rate average= 0.0105
	minimum = 0.006 (at node 5)
	maximum = 0.016 (at node 15)
Injected packet length average = 1
Accepted packet length average = 1
Total in-flight flits = 2 (0 measured)
latency change    = 0.064212
throughput change = 0.214286
Warmed up ...Time used is 1500 cycles
Class 0:
Packet latency average = 20.314
	minimum = 7
	maximum = 56
Network latency average = 20.314
	minimum = 7
	maximum = 56
Slowest packet = 280
Flit latency average = 20.5227
	minimum = 7
	maximum = 56
Slowest flit = 280
Fragmentation average = 0
	minimum = 0
	maximum = 0
Injected packet rate average = 0.01125
	minimum = 0.004 (at node 15)
	maximum = 0.022 (at node 10)
Accepted packet rate average = 0.011
	minimum = 0.004 (at node 3)
	maximum = 0.016 (at node 4)
Injected flit rate average = 0.01125
	minimum = 0.004 (at node 15)
	maximum = 0.022 (at node 10)
Accepted flit rate average= 0.011
	minimum = 0.004 (at node 3)
	maximum = 0.016 (at node 4)
Injected packet length average = 1
Accepted packet length average = 1
Total in-flight flits = 4 (4 measured)
latency change    = 0.0736228
throughput change = 0.0454545
Class 0:
Packet latency average = 20.6446
	minimum = 7
	maximum = 56
Network latency average = 20.6446
	minimum = 7
	maximum = 56
Slowest packet = 280
Flit latency average = 20.75
	minimum = 7
	maximum = 56
Slowest flit = 280
Fragmentation average = 0
	minimum = 0
	maximum = 0
Injected packet rate average = 0.0105
	minimum = 0.006 (at node 2)
	maximum = 0.015 (at node 3)
Accepted packet rate average = 0.0105
	minimum = 0.004 (at node 12)
	maximum = 0.014 (at node 6)
Injected flit rate average = 0.0105
	minimum = 0.006 (at node 2)
	maximum = 0.015 (at node 3)
Accepted flit rate average= 0.0105
	minimum = 0.004 (at node 12)
	maximum = 0.014 (at node 6)
Injected packet length average = 1
Accepted packet length average = 1
Total in-flight flits = 2 (2 measured)
latency change    = 0.0160151
throughput change = 0.047619
Class 0:
Packet latency average = 20.8383
	minimum = 7
	maximum = 56
Network latency average = 20.8383
	minimum = 7
	maximum = 56
Slowest packet = 280
Flit latency average = 20.9114
	minimum = 7
	maximum = 56
Slowest flit = 280
Fragmentation average = 0
	minimum = 0
	maximum = 0
Injected packet rate average = 0.00983333
	minimum = 0.00666667 (at node 1)
	maximum = 0.0153333 (at node 3)
Accepted packet rate average = 0.009875
	minimum = 0.00466667 (at node 12)
	maximum = 0.0146667 (at node 1)
Injected flit rate average = 0.00983333
	minimum = 0.00666667 (at node 1)
	maximum = 0.0153333 (at node 3)
Accepted flit rate average= 0.009875
	minimum = 0.00466667 (at node 12)
	maximum = 0.0146667 (at node 1)
Injected packet length average = 1
Accepted packet length average = 1
Total in-flight flits = 1 (1 measured)
latency change    = 0.00929632
throughput change = 0.0632911
Class 0:
Packet latency average = 20.5604
	minimum = 7
	maximum = 57
Network latency average = 20.5604
	minimum = 7
	maximum = 57
Slowest packet = 501
Flit latency average = 20.6154
	minimum = 7
	maximum = 57
Slowest flit = 501
Fragmentation average = 0
	minimum = 0
	maximum = 0
Injected packet rate average = 0.0101875
	minimum = 0.0065 (at node 8)
	maximum = 0.014 (at node 10)
Accepted packet rate average = 0.0101563
	minimum = 0.005 (at node 12)
	maximum = 0.015 (at node 1)
Injected flit rate average = 0.0101875
	minimum = 0.0065 (at node 8)
	maximum = 0.014 (at node 10)
Accepted flit rate average= 0.0101563
	minimum = 0.005 (at node 12)
	maximum = 0.015 (at node 1)
Injected packet length average = 1
Accepted packet length average = 1
Total in-flight flits = 3 (3 measured)
latency change    = 0.0135176
throughput change = 0.0276923
Class 0:
Packet latency average = 20.799
	minimum = 7
	maximum = 57
Network latency average = 20.799
	minimum = 7
	maximum = 57
Slowest packet = 501
Flit latency average = 20.8415
	minimum = 7
	maximum = 57
Slowest flit = 501
Fragmentation average = 0
	minimum = 0
	maximum = 0
Injected packet rate average = 0.010275
	minimum = 0.0076 (at node 1)
	maximum = 0.0136 (at node 12)
Accepted packet rate average = 0.01025
	minimum = 0.0056 (at node 12)
	maximum = 0.0148 (at node 1)
Injected flit rate average = 0.010275
	minimum = 0.0076 (at node 1)
	maximum = 0.0136 (at node 12)
Accepted flit rate average= 0.01025
	minimum = 0.0056 (at node 12)
	maximum = 0.0148 (at node 1)
Injected packet length average = 1
Accepted packet length average = 1
Total in-flight flits = 3 (3 measured)
latency change    = 0.011474
throughput change = 0.00914634
Class 0:
Packet latency average = 20.8671
	minimum = 7
	maximum = 57
Network latency average = 20.8671
	minimum = 7
	maximum = 57
Slowest packet = 501
Flit latency average = 20.9022
	minimum = 7
	maximum = 57
Slowest flit = 501
Fragmentation average = 0
	minimum = 0
	maximum = 0
Injected packet rate average = 0.0103125
	minimum = 0.00766667 (at node 1)
	maximum = 0.0136667 (at node 10)
Accepted packet rate average = 0.0102292
	minimum = 0.00733333 (at node 2)
	maximum = 0.0136667 (at node 1)
Injected flit rate average = 0.0103125
	minimum = 0.00766667 (at node 1)
	maximum = 0.0136667 (at node 10)
Accepted flit rate average= 0.0102292
	minimum = 0.00733333 (at node 2)
	maximum = 0.0136667 (at node 1)
Injected packet length average = 1
Accepted packet length average = 1
Total in-flight flits = 6 (6 measured)
latency change    = 0.00326141
throughput change = 0.00203666
Draining all recorded packets ...
Draining remaining packets ...
Time taken is 4538 cycles
Class 0:
Packet latency average = 18.7941
	minimum = 7
	maximum = 42
Network latency average = 18.7941
	minimum = 7
	maximum = 42
Slowest packet = 755
Flit latency average = 18.7941
	minimum = 7
	maximum = 42
Slowest flit = 755
Fragmentation average = 0
	minimum = 0
	maximum = 0
Injected packet rate average = 0.00875
	minimum = 0.004 (at node 7)
	maximum = 0.026 (at node 5)
Accepted packet rate average = 0.0085
	minimum = 0.004 (at node 2)
	maximum = 0.014 (at node 4)
Injected flit rate average = 0.00875
	minimum = 0.004 (at node 7)
	maximum = 0.026 (at node 5)
Accepted flit rate average= 0.0085
	minimum = 0.004 (at node 2)
	maximum = 0.014 (at node 4)
Injected packet length average = 1
Accepted packet length average = 1
Total in-flight flits = 2 (0 measured)
latency change    = 1
throughput change = 1
Class 0:
Packet latency average = 20.1572
	minimum = 7
	maximum = 42
Network latency average = 20.1572
	minimum = 7
	maximum = 42
Slowest packet = 755
Flit latency average = 20.1572
	minimum = 7
	maximum = 42
Slowest flit = 755
Fragmentation average = 0
	minimum = 0
	maximum = 0
Injected packet rate average = 0.01
	minimum = 0.005 (at node 2)
	maximum = 0.018 (at node 5)
Accepted packet rate average = 0.0099375
	minimum = 0.005 (at node 6)
	maximum = 0.013 (at node 10)
Injected flit rate average = 0.01
	minimum = 0.005 (at node 2)
	maximum = 0.018 (at node 5)
Accepted flit rate average= 0.0099375
	minimum = 0.005 (at node 6)
	maximum = 0.013 (at node 10)
Injected packet length average = 1
Accepted packet length average = 1
Total in-flight flits = 1 (0 measured)
latency change    = 0.0676241
throughput change = 0.144654
Class 0:
Packet latency average = 21.4
	minimum = 7
	maximum = 57
Network latency average = 21.4
	minimum = 7
	maximum = 57
Slowest packet = 938
Flit latency average = 21.4
	minimum = 7
	maximum = 57
Slowest flit = 938
Fragmentation average = 0
	minimum = 0
	maximum = 0
Injected packet rate average = 0.00975
	minimum = 0.004 (at node 1)
	maximum = 0.018 (at node 9)
Accepted packet rate average = 0.009375
	minimum = 0.004 (at node 3)
	maximum = 0.018 (at node 1)
Injected flit rate average = 0.00975
	minimum = 0.004 (at node 1)
	maximum = 0.018 (at node 9)
Accepted flit rate average= 0.009375
	minimum = 0.004 (at node 3)
	maximum = 0.018 (at node 1)
Injected packet length average = 1
Accepted packet length average = 1
Total in-flight flits = 4 (0 measured)
latency change    = 0.0580732
throughput change = 0.06
Warmed up ...Time used is 1500 cycles
Class 0:
Packet latency average = 21.8293
	minimum = 7
	maximum = 53
Network latency average = 21.8293
	minimum = 7
	maximum = 53
Slowest packet = 975
Flit latency average = 21.6628
	minimum = 7
	maximum = 53
Slowest flit = 975
Fragmentation average = 0
	minimum = 0
	maximum = 0
Injected packet rate average = 0.0105
	minimum = 0.004 (at node 6)
	maximum = 0.016 (at node 5)
Accepted packet rate average = 0.01075
	minimum = 0.004 (at node 9)
	maximum = 0.018 (at node 0)
Injected flit rate average = 0.0105
	minimum = 0.004 (at node 6)
	maximum = 0.016 (at node 5)
Accepted flit rate average= 0.01075
	minimum = 0.004 (at node 9)
	maximum = 0.018 (at node 0)
Injected packet length average = 1
Accepted packet length average = 1
Total in-flight flits = 2 (2 measured)
latency change    = 0.0196648
throughput change = 0.127907
Class 0:
Packet latency average = 21.6842
	minimum = 7
	maximum = 57
Network latency average = 21.6842
	minimum = 7
	maximum = 57
Slowest packet = 1101
Flit latency average = 21.6057
	minimum = 7
	maximum = 57
Slowest flit = 1101
Fragmentation average = 0
	minimum = 0
	maximum = 0
Injected packet rate average = 0.010875
	minimum = 0.007 (at node 6)
	maximum = 0.015 (at node 5)
Accepted packet rate average = 0.0109375
	minimum = 0.003 (at node 11)
	maximum = 0.018 (at node 0)
Injected flit rate average = 0.010875
	minimum = 0.007 (at node 6)
	maximum = 0.015 (at node 5)
Accepted flit rate average= 0.0109375
	minimum = 0.003 (at node 11)
	maximum = 0.018 (at node 0)
Injected packet length average = 1
Accepted packet length average = 1
Total in-flight flits = 3 (3 measured)
latency change    = 0.00668956
throughput change = 0.0171429
Class 0:
Packet latency average = 21.5714
	minimum = 7
	maximum = 57
Network latency average = 21.5714
	minimum = 7
	maximum = 57
Slowest packet = 1101
Flit latency average = 21.5195
	minimum = 7
	maximum = 57
Slowest flit = 1101
Fragmentation average = 0
	minimum = 0
	maximum = 0
Injected packet rate average = 0.0107083
	minimum = 0.00866667 (at node 2)
	maximum = 0.0153333 (at node 5)
Accepted packet rate average = 0.0106667
	minimum = 0.00533333 (at node 11)
	maximum = 0.016 (at node 8)
Injected flit rate average = 0.0107083
	minimum = 0.00866667 (at node 2)
	maximum = 0.0153333 (at node 5)
Accepted flit rate average= 0.0106667
	minimum = 0.00533333 (at node 11)
	maximum = 0.016 (at node 8)
Injected packet length average = 1
Accepted packet length average = 1
Total in-flight flits = 5 (5 measured)
latency change    = 0.0052283
throughput change = 0.0253906
Class 0:
Packet latency average = 21.6292
	minimum = 7
	maximum = 57
Network latency average = 21.6292
	minimum = 7
	maximum = 57
Slowest packet = 1101
Flit latency average = 21.5886
	minimum = 7
	maximum = 57
Slowest flit = 1101
Fragmentation average = 0
	minimum = 0
	maximum = 0
Injected packet rate average = 0.0104063
	minimum = 0.008 (at node 6)
	maximum = 0.015 (at node 3)
Accepted packet rate average = 0.0104063
	minimum = 0.0055 (at node 11)
	maximum = 0.0155 (at node 0)
Injected flit rate average = 0.0104063
	minimum = 0.008 (at node 6)
	maximum = 0.015 (at node 3)
Accepted flit rate average= 0.0104063
	minimum = 0.0055 (at node 11)
	maximum = 0.0155 (at node 0)
Injected packet length average = 1
Accepted packet length average = 1
Total in-flight flits = 4 (4 measured)
latency change    = 0.00267004
throughput change = 0.025025
Draining all recorded packets ...
Draining remaining packets ...
Time taken is 3548 cycles
Class 0:
Packet latency average = 20.9211
	minimum = 7
	maximum = 52
Network latency average = 20.9211
	minimum = 7
	maximum = 52
Slowest packet = 1304
Flit latency average = 20.9211
	minimum = 7
	maximum = 52
Slowest flit = 1304
Fragmentation average = 0
	minimum = 0
	maximum = 0
Injected packet rate average = 0.00975
	minimum = 0.002 (at node 11)
	maximum = 0.014 (at node 1)
Accepted packet rate average = 0.0095
	minimum = 0.002 (at node 0)
	maximum = 0.016 (at node 5)
Injected flit rate average = 0.00975
	minimum = 0.002 (at node 11)
	maximum = 0.014 (at node 1)
Accepted flit rate average= 0.0095
	minimum = 0.002 (at node 0)
	maximum = 0.016 (at node 5)
Injected packet length average = 1
Accepted packet length average = 1
Total in-flight flits = 2 (0 measured)
latency change    = 1
throughput change = 1
Class 0:
Packet latency average = 21.0244
	minimum = 7
	maximum = 52
Network latency average = 21.0244
	minimum = 7
	maximum = 52
Slowest packet = 1304
Flit latency average = 21.0244
	minimum = 7
	maximum = 52
Slowest flit = 1304
Fragmentation average = 0
	minimum = 0
	maximum = 0
Injected packet rate average = 0.0105625
	minimum = 0.006 (at node 5)
	maximum = 0.015 (at node 8)
Accepted packet rate average = 0.01025
	minimum = 0.003 (at node 0)
	maximum = 0.015 (at node 5)
Injected flit rate average = 0.0105625
	minimum = 0.006 (at node 5)
	maximum = 0.015 (at node 8)
Accepted flit rate average= 0.01025
	minimum = 0.003 (at node 0)
	maximum = 0.015 (at node 5)
Injected packet length average = 1
Accepted packet length average = 1
Total in-flight flits = 5 (0 measured)
latency change    = 0.00491513
throughput change = 0.0731707
Class 0:
Packet latency average = 20.3229
	minimum = 7
	maximum = 57
Network latency average = 20.3229
	minimum = 7
	maximum = 57
Slowest packet = 1475
Flit latency average = 20.3229
	minimum = 7
	maximum = 57
Slowest flit = 1475
Fragmentation average = 0
	minimum = 0
	maximum = 0
Injected packet rate average = 0.011375
	minimum = 0 (at node 7)
	maximum = 0.022 (at node 0)
Accepted packet rate average = 0.012
	minimum = 0.002 (at node 4)
	maximum = 0.02 (at node 3)
Injected flit rate average = 0.011375
	minimum = 0 (at node 7)
	maximum = 0.022 (at node 0)
Accepted flit rate average= 0.012
	minimum = 0.002 (at node 4)
	maximum = 0.02 (at node 3)
Injected packet length average = 1
Accepted packet length average = 1
Total in-flight flits = 0 (0 measured)
latency change    = 0.0345164
throughput change = 0.145833
Warmed up ...Time used is 1500 cycles
Class 0:
Packet latency average = 21.5851
	minimum = 7
	maximum = 57
Network latency average = 21.5851
	minimum = 7
	maximum = 57
Slowest packet = 1632
Flit latency average = 21.5851
	minimum = 7
	maximum = 57
Slowest flit = 1632
Fragmentation average = 0
	minimum = 0
	maximum = 0
Injected packet rate average = 0.011875
	minimum = 0.004 (at node 1)
	maximum = 0.022 (at node 0)
Accepted packet rate average = 0.01175
	minimum = 0.006 (at node 7)
	maximum = 0.026 (at node 6)
Injected flit rate average = 0.011875
	minimum = 0.004 (at node 1)
	maximum = 0.022 (at node 0)
Accepted flit rate average= 0.01175
	minimum = 0.006 (at node 7)
	maximum = 0.026 (at node 6)
Injected packet length average = 1
Accepted packet length average = 1
Total in-flight flits = 1 (1 measured)
latency change    = 0.058475
throughput change = 0.0212766
Class 0:
Packet latency average = 20.6057
	minimum = 7
	maximum = 57
Network latency average = 20.6057
	minimum = 7
	maximum = 57
Slowest packet = 1632
Flit latency average = 20.6057
	minimum = 7
	maximum = 57
Slowest flit = 1632
Fragmentation average = 0
	minimum = 0
	maximum = 0
Injected packet rate average = 0.011375
	minimum = 0.005 (at node 3)
	maximum = 0.019 (at node 14)
Accepted packet rate average = 0.0109375
	minimum = 0.007 (at node 13)
	maximum = 0.016 (at node 6)
Injected flit rate average = 0.011375
	minimum = 0.005 (at node 3)
	maximum = 0.019 (at node 14)
Accepted flit rate average= 0.0109375
	minimum = 0.007 (at node 13)
	maximum = 0.016 (at node 6)
Injected packet length average = 1
Accepted packet length average = 1
Total in-flight flits = 7 (7 measured)
latency change    = 0.0475301
throughput change = 0.0742857
Class 0:
Packet latency average = 21.2815
	minimum = 7
	maximum = 57
Network latency average = 21.2815
	minimum = 7
	maximum = 57
Slowest packet = 1632
Flit latency average = 21.2815
	minimum = 7
	maximum = 57
Slowest flit = 1632
Fragmentation average = 0
	minimum = 0
	maximum = 0
Injected packet rate average = 0.0114583
	minimum = 0.00466667 (at node 1)
	maximum = 0.018 (at node 6)
Accepted packet rate average = 0.01125
	minimum = 0.008 (at node 13)
	maximum = 0.0153333 (at node 2)
Injected flit rate average = 0.0114583
	minimum = 0.00466667 (at node 1)
	maximum = 0.018 (at node 6)
Accepted flit rate average= 0.01125
	minimum = 0.008 (at node 13)
	maximum = 0.0153333 (at node 2)
Injected packet length average = 1
Accepted packet length average = 1
Total in-flight flits = 5 (5 measured)
latency change    = 0.0317538
throughput change = 0.0277778
Class 0:
Packet latency average = 21.3556
	minimum = 7
	maximum = 57
Network latency average = 21.3556
	minimum = 7
	maximum = 57
Slowest packet = 1632
Flit latency average = 21.3556
	minimum = 7
	maximum = 57
Slowest flit = 1632
Fragmentation average = 0
	minimum = 0
	maximum = 0
Injected packet rate average = 0.0113437
	minimum = 0.0065 (at node 9)
	maximum = 0.0155 (at node 6)
Accepted packet rate average = 0.01125
	minimum = 0.009 (at node 12)
	maximum = 0.014 (at node 15)
Injected flit rate average = 0.0113437
	minimum = 0.0065 (at node 9)
	maximum = 0.0155 (at node 6)
Accepted flit rate average= 0.01125
	minimum = 0.009 (at node 12)
	maximum = 0.014 (at node 15)
Injected packet length average = 1
Accepted packet length average = 1
Total in-flight flits = 3 (3 measured)
latency change    = 0.00346861
throughput change = 0
Class 0:
Packet latency average = 21.2851
	minimum = 7
	maximum = 57
Network latency average = 21.2851
	minimum = 7
	maximum = 57
Slowest packet = 1632
Flit latency average = 21.2851
	minimum = 7
	maximum = 57
Slowest flit = 1632
Fragmentation average = 0
	minimum = 0
	maximum = 0
Injected packet rate average = 0.0111
	minimum = 0.0056 (at node 9)
	maximum = 0.0144 (at node 6)
Accepted packet rate average = 0.01105
	minimum = 0.0088 (at node 9)
	maximum = 0.014 (at node 8)
Injected flit rate average = 0.0111
	minimum = 0.0056 (at node 9)
	maximum = 0.0144 (at node 6)
Accepted flit rate average= 0.01105
	minimum = 0.0088 (at node 9)
	maximum = 0.014 (at node 8)
Injected packet length average = 1
Accepted packet length average = 1
Total in-flight flits = 2 (2 measured)
latency change    = 0.0033116
throughput change = 0.0180995
Draining all recorded packets ...
Draining remaining packets ...
Time taken is 4045 cycles
Class 0:
Packet latency average = 21.6857
	minimum = 7
	maximum = 57
Network latency average = 21.6857
	minimum = 7
	maximum = 57
Slowest packet = 2036
Flit latency average = 21.6857
	minimum = 7
	maximum = 57
Slowest flit = 2036
Fragmentation average = 0
	minimum = 0
	maximum = 0
Injected packet rate average = 0.009125
	minimum = 0.002 (at node 10)
	maximum = 0.012 (at node 0)
Accepted packet rate average = 0.00875
	minimum = 0.004 (at node 5)
	maximum = 0.016 (at node 1)
Injected flit rate average = 0.009125
	minimum = 0.002 (at node 10)
	maximum = 0.012 (at node 0)
Accepted flit rate average= 0.00875
	minimum = 0.004 (at node 5)
	maximum = 0.016 (at node 1)
Injected packet length average = 1
Accepted packet length average = 1
Total in-flight flits = 3 (0 measured)
latency change    = 1
throughput change = 1
Class 0:
Packet latency average = 21.6197
	minimum = 7
	maximum = 57
Network latency average = 21.6197
	minimum = 7
	maximum = 57
Slowest packet = 2036
Flit latency average = 21.6197
	minimum = 7
	maximum = 57
Slowest flit = 2036
Fragmentation average = 0
	minimum = 0
	maximum = 0
Injected packet rate average = 0.0091875
	minimum = 0.003 (at node 10)
	maximum = 0.014 (at node 0)
Accepted packet rate average = 0.008875
	minimum = 0.003 (at node 5)
	maximum = 0.016 (at node 9)
Injected flit rate average = 0.0091875
	minimum = 0.003 (at node 10)
	maximum = 0.014 (at node 0)
Accepted flit rate average= 0.008875
	minimum = 0.003 (at node 5)
	maximum = 0.016 (at node 9)
Injected packet length average = 1
Accepted packet length average = 1
Total in-flight flits = 5 (0 measured)
latency change    = 0.00305258
throughput change = 0.0140845
Class 0:
Packet latency average = 20.617
	minimum = 7
	maximum = 47
Network latency average = 20.617
	minimum = 7
	maximum = 47
Slowest packet = 2159
Flit latency average = 20.617
	minimum = 7
	maximum = 47
Slowest flit = 2159
Fragmentation average = 0
	minimum = 0
	maximum = 0
Injected packet rate average = 0.011125
	minimum = 0.004 (at node 6)
	maximum = 0.022 (at node 14)
Accepted packet rate average = 0.01175
	minimum = 0.002 (at node 9)
	maximum = 0.022 (at node 5)
Injected flit rate average = 0.011125
	minimum = 0.004 (at node 6)
	maximum = 0.022 (at node 14)
Accepted flit rate average= 0.01175
	minimum = 0.002 (at node 9)
	maximum = 0.022 (at node 5)
Injected packet length average = 1
Accepted packet length average = 1
Total in-flight flits = 0 (0 measured)
latency change    = 0.0486344
throughput change = 0.244681
Warmed up ...Time used is 1500 cycles
Class 0:
Packet latency average = 20.4474
	minimum = 7
	maximum = 53
Network latency average = 20.4474
	minimum = 7
	maximum = 53
Slowest packet = 2241
Flit latency average = 20.4474
	minimum = 7
	maximum = 53
Slowest flit = 2241
Fragmentation average = 0
	minimum = 0
	maximum = 0
Injected packet rate average = 0.00975
	minimum = 0.004 (at node 8)
	maximum = 0.016 (at node 4)
Accepted packet rate average = 0.0095
	minimum = 0.004 (at node 10)
	maximum = 0.016 (at node 11)
Injected flit rate average = 0.00975
	minimum = 0.004 (at node 8)
	maximum = 0.016 (at node 4)
Accepted flit rate average= 0.0095
	minimum = 0.004 (at node 10)
	maximum = 0.016 (at node 11)
Injected packet length average = 1
Accepted packet length average = 1
Total in-flight flits = 2 (2 measured)
latency change    = 0.00829705
throughput change = 0.236842
Class 0:
Packet latency average = 19.9737
	minimum = 7
	maximum = 53
Network latency average = 19.9737
	minimum = 7
	maximum = 53
Slowest packet = 2241
Flit latency average = 19.9737
	minimum = 7
	maximum = 53
Slowest flit = 2241
Fragmentation average = 0
	minimum = 0
	maximum = 0
Injected packet rate average = 0.009625
	minimum = 0.005 (at node 3)
	maximum = 0.015 (at node 5)
Accepted packet rate average = 0.0095
	minimum = 0.004 (at node 9)
	maximum = 0.016 (at node 11)
Injected flit rate average = 0.009625
	minimum = 0.005 (at node 3)
	maximum = 0.015 (at node 5)
Accepted flit rate average= 0.0095
	minimum = 0.004 (at node 9)
	maximum = 0.016 (at node 11)
Injected packet length average = 1
Accepted packet length average = 1
Total in-flight flits = 2 (2 measured)
latency change    = 0.0237154
throughput change = 0
Class 0:
Packet latency average = 20.5628
	minimum = 7
	maximum = 53
Network latency average = 20.5628
	minimum = 7
	maximum = 53
Slowest packet = 2241
Flit latency average = 20.5628
	minimum = 7
	maximum = 53
Slowest flit = 2241
Fragmentation average = 0
	minimum = 0
	maximum = 0
Injected packet rate average = 0.00970833
	minimum = 0.006 (at node 3)
	maximum = 0.0126667 (at node 5)
Accepted packet rate average = 0.009625
	minimum = 0.006 (at node 9)
	maximum = 0.014 (at node 11)
Injected flit rate average = 0.00970833
	minimum = 0.006 (at node 3)
	maximum = 0.0126667 (at node 5)
Accepted flit rate average= 0.009625
	minimum = 0.006 (at node 9)
	maximum = 0.014 (at node 11)
Injected packet length average = 1
Accepted packet length average = 1
Total in-flight flits = 2 (2 measured)
latency change    = 0.0286482
throughput change = 0.012987
Class 0:
Packet latency average = 20.7802
	minimum = 7
	maximum = 53
Network latency average = 20.7802
	minimum = 7
	maximum = 53
Slowest packet = 2241
Flit latency average = 20.7802
	minimum = 7
	maximum = 53
Slowest flit = 2241
Fragmentation average = 0
	minimum = 0
	maximum = 0
Injected packet rate average = 0.0101875
	minimum = 0.0065 (at node 3)
	maximum = 0.012 (at node 1)
Accepted packet rate average = 0.0100938
	minimum = 0.007 (at node 9)
	maximum = 0.016 (at node 11)
Injected flit rate average = 0.0101875
	minimum = 0.0065 (at node 3)
	maximum = 0.012 (at node 1)
Accepted flit rate average= 0.0100938
	minimum = 0.007 (at node 9)
	maximum = 0.016 (at node 11)
Injected packet length average = 1
Accepted packet length average = 1
Total in-flight flits = 3 (3 measured)
latency change    = 0.0104626
throughput change = 0.0464396
Draining all recorded packets ...
Draining remaining packets ...
Time taken is 3544 cycles
Class 0:
Packet latency average = 22.2976
	minimum = 12
	maximum = 47
Network latency average = 22.2976
	minimum = 12
	maximum = 47
Slowest packet = 2618
Flit latency average = 22.2976
	minimum = 12
	maximum = 47
Slowest flit = 2618
Fragmentation average = 0
	minimum = 0
	maximum = 0
Injected packet rate average = 0.010625
	minimum = 0.004 (at node 4)
	maximum = 0.018 (at node 11)
Accepted packet rate average = 0.0105
	minimum = 0.002 (at node 9)
	maximum = 0.018 (at node 8)
Injected flit rate average = 0.010625
	minimum = 0.004 (at node 4)
	maximum = 0.018 (at node 11)
Accepted flit rate average= 0.0105
	minimum = 0.002 (at node 9)
	maximum = 0.018 (at node 8)
Injected packet length average = 1
Accepted packet length average = 1
Total in-flight flits = 1 (0 measured)
latency change    = 1
throughput change = 1
Class 0:
Packet latency average = 21.9816
	minimum = 7
	maximum = 57
Network latency average = 21.9816
	minimum = 7
	maximum = 57
Slowest packet = 2660
Flit latency average = 21.9816
	minimum = 7
	maximum = 57
Slowest flit = 2660
Fragmentation average = 0
	minimum = 0
	maximum = 0
Injected packet rate average = 0.0104375
	minimum = 0.005 (at node 7)
	maximum = 0.016 (at node 3)
Accepted packet rate average = 0.0101875
	minimum = 0.006 (at node 2)
	maximum = 0.022 (at node 10)
Injected flit rate average = 0.0104375
	minimum = 0.005 (at node 7)
	maximum = 0.016 (at node 3)
Accepted flit rate average= 0.0101875
	minimum = 0.006 (at node 2)
	maximum = 0.022 (at node 10)
Injected packet length average = 1
Accepted packet length average = 1
Total in-flight flits = 4 (0 measured)
latency change    = 0.0143768
throughput change = 0.0306748
Class 0:
Packet latency average = 22.6923
	minimum = 7
	maximum = 52
Network latency average = 22.6923
	minimum = 7
	maximum = 52
Slowest packet = 2716
Flit latency average = 22.6923
	minimum = 7
	maximum = 52
Slowest flit = 2716
Fragmentation average = 0
	minimum = 0
	maximum = 0
Injected packet rate average = 0.0085
	minimum = 0 (at node 7)
	maximum = 0.016 (at node 0)
Accepted packet rate average = 0.008125
	minimum = 0.004 (at node 1)
	maximum = 0.016 (at node 3)
Injected flit rate average = 0.0085
	minimum = 0 (at node 7)
	maximum = 0.016 (at node 0)
Accepted flit rate average= 0.008125
	minimum = 0.004 (at node 1)
	maximum = 0.016 (at node 3)
Injected packet length average = 1
Accepted packet length average = 1
Total in-flight flits = 7 (0 measured)
latency change    = 0.0313195
throughput change = 0.253846
Warmed up ...Time used is 1500 cycles
Class 0:
Packet latency average = 20.2879
	minimum = 7
	maximum = 47
Network latency average = 20.2879
	minimum = 7
	maximum = 47
Slowest packet = 2843
Flit latency average = 20.4521
	minimum = 7
	maximum = 47
Slowest flit = 2843
Fragmentation average = 0
	minimum = 0
	maximum = 0
Injected packet rate average = 0.00875
	minimum = 0.002 (at node 8)
	maximum = 0.018 (at node 6)
Accepted packet rate average = 0.009125
	minimum = 0.004 (at node 10)
	maximum = 0.016 (at node 6)
Injected flit rate average = 0.00875
	minimum = 0.002 (at node 8)
	maximum = 0.018 (at node 6)
Accepted flit rate average= 0.009125
	minimum = 0.004 (at node 10)
	maximum = 0.016 (at node 6)
Injected packet length average = 1
Accepted packet length average = 1
Total in-flight flits = 4 (4 measured)
latency change    = 0.118516
throughput change = 0.109589
Class 0:
Packet latency average = 21.0621
	minimum = 7
	maximum = 52
Network latency average = 21.0621
	minimum = 7
	maximum = 52
Slowest packet = 2917
Flit latency average = 21.1053
	minimum = 7
	maximum = 52
Slowest flit = 2917
Fragmentation average = 0
	minimum = 0
	maximum = 0
Injected packet rate average = 0.00925
	minimum = 0.004 (at node 3)
	maximum = 0.013 (at node 4)
Accepted packet rate average = 0.0095
	minimum = 0.005 (at node 10)
	maximum = 0.014 (at node 0)
Injected flit rate average = 0.00925
	minimum = 0.004 (at node 3)
	maximum = 0.013 (at node 4)
Accepted flit rate average= 0.0095
	minimum = 0.005 (at node 10)
	maximum = 0.014 (at node 0)
Injected packet length average = 1
Accepted packet length average = 1
Total in-flight flits = 3 (3 measured)
latency change    = 0.0367576
throughput change = 0.0394737
Class 0:
Packet latency average = 20.5972
	minimum = 7
	maximum = 52
Network latency average = 20.5972
	minimum = 7
	maximum = 52
Slowest packet = 2917
Flit latency average = 20.6422
	minimum = 7
	maximum = 52
Slowest flit = 2917
Fragmentation average = 0
	minimum = 0
	maximum = 0
Injected packet rate average = 0.00891667
	minimum = 0.006 (at node 3)
	maximum = 0.012 (at node 2)
Accepted packet rate average = 0.00908333
	minimum = 0.00466667 (at node 9)
	maximum = 0.012 (at node 2)
Injected flit rate average = 0.00891667
	minimum = 0.006 (at node 3)
	maximum = 0.012 (at node 2)
Accepted flit rate average= 0.00908333
	minimum = 0.00466667 (at node 9)
	maximum = 0.012 (at node 2)
Injected packet length average = 1
Accepted packet length average = 1
Total in-flight flits = 3 (3 measured)
latency change    = 0.0225717
throughput change = 0.0458716
Class 0:
Packet latency average = 20.8007
	minimum = 7
	maximum = 57
Network latency average = 20.8007
	minimum = 7
	maximum = 57
Slowest packet = 3034
Flit latency average = 20.8304
	minimum = 7
	maximum = 57
Slowest flit = 3034
Fragmentation average = 0
	minimum = 0
	maximum = 0
Injected packet rate average = 0.00875
	minimum = 0.006 (at node 3)
	maximum = 0.0115 (at node 2)
Accepted packet rate average = 0.00884375
	minimum = 0.005 (at node 10)
	maximum = 0.0115 (at node 2)
Injected flit rate average = 0.00875
	minimum = 0.006 (at node 3)
	maximum = 0.0115 (at node 2)
Accepted flit rate average= 0.00884375
	minimum = 0.005 (at node 10)
	maximum = 0.0115 (at node 2)
Injected packet length average = 1
Accepted packet length average = 1
Total in-flight flits = 4 (4 measured)
latency change    = 0.00978659
throughput change = 0.0270907
Draining all recorded packets ...
Draining remaining packets ...
Time taken is 3547 cycles
Class 0:
Packet latency average = 22.5063
	minimum = 12
	maximum = 47
Network latency average = 22.5063
	minimum = 12
	maximum = 47
Slowest packet = 3099
Flit latency average = 22.5063
	minimum = 12
	maximum = 47
Slowest flit = 3099
Fragmentation average = 0
	minimum = 0
	maximum = 0
Injected packet rate average = 0.0105
	minimum = 0 (at node 4)
	maximum = 0.024 (at node 12)
Accepted packet rate average = 0.009875
	minimum = 0.004 (at node 2)
	maximum = 0.02 (at node 0)
Injected flit rate average = 0.0105
	minimum = 0 (at node 4)
	maximum = 0.024 (at node 12)
Accepted flit rate average= 0.009875
	minimum = 0.004 (at node 2)
	maximum = 0.02 (at node 0)
Injected packet length average = 1
Accepted packet length average = 1
Total in-flight flits = 5 (0 measured)
latency change    = 1
throughput change = 1
Class 0:
Packet latency average = 22.1975
	minimum = 7
	maximum = 47
Network latency average = 22.1975
	minimum = 7
	maximum = 47
Slowest packet = 3099
Flit latency average = 22.1975
	minimum = 7
	maximum = 47
Slowest flit = 3099
Fragmentation average = 0
	minimum = 0
	maximum = 0
Injected packet rate average = 0.0100625
	minimum = 0.005 (at node 4)
	maximum = 0.019 (at node 12)
Accepted packet rate average = 0.0098125
	minimum = 0.006 (at node 2)
	maximum = 0.017 (at node 1)
Injected flit rate average = 0.0100625
	minimum = 0.005 (at node 4)
	maximum = 0.019 (at node 12)
Accepted flit rate average= 0.0098125
	minimum = 0.006 (at node 2)
	maximum = 0.017 (at node 1)
Injected packet length average = 1
Accepted packet length average = 1
Total in-flight flits = 4 (0 measured)
latency change    = 0.013915
throughput change = 0.00636943
Class 0:
Packet latency average = 21.7245
	minimum = 7
	maximum = 54
Network latency average = 21.7245
	minimum = 7
	maximum = 54
Slowest packet = 3269
Flit latency average = 21.7245
	minimum = 7
	maximum = 54
Slowest flit = 3269
Fragmentation average = 0
	minimum = 0
	maximum = 0
Injected packet rate average = 0.012
	minimum = 0.006 (at node 9)
	maximum = 0.024 (at node 15)
Accepted packet rate average = 0.01225
	minimum = 0.008 (at node 1)
	maximum = 0.02 (at node 2)
Injected flit rate average = 0.012
	minimum = 0.006 (at node 9)
	maximum = 0.024 (at node 15)
Accepted flit rate average= 0.01225
	minimum = 0.008 (at node 1)
	maximum = 0.02 (at node 2)
Injected packet length average = 1
Accepted packet length average = 1
Total in-flight flits = 2 (0 measured)
latency change    = 0.0217709
throughput change = 0.19898
Warmed up ...Time used is 1500 cycles
Class 0:
Packet latency average = 19.8415
	minimum = 7
	maximum = 37
Network latency average = 19.8415
	minimum = 7
	maximum = 37
Slowest packet = 3343
Flit latency average = 19.8333
	minimum = 7
	maximum = 37
Slowest flit = 3343
Fragmentation average = 0
	minimum = 0
	maximum = 0
Injected packet rate average = 0.010625
	minimum = 0.004 (at node 2)
	maximum = 0.022 (at node 3)
Accepted packet rate average = 0.0105
	minimum = 0 (at node 12)
	maximum = 0.022 (at node 2)
Injected flit rate average = 0.010625
	minimum = 0.004 (at node 2)
	maximum = 0.022 (at node 3)
Accepted flit rate average= 0.0105
	minimum = 0 (at node 12)
	maximum = 0.022 (at node 2)
Injected packet length average = 1
Accepted packet length average = 1
Total in-flight flits = 3 (3 measured)
latency change    = 0.0949036
throughput change = 0.166667
Class 0:
Packet latency average = 20.0366
	minimum = 7
	maximum = 52
Network latency average = 20.0366
	minimum = 7
	maximum = 52
Slowest packet = 3444
Flit latency average = 20.0301
	minimum = 7
	maximum = 52
Slowest flit = 3444
Fragmentation average = 0
	minimum = 0
	maximum = 0
Injected packet rate average = 0.010375
	minimum = 0.006 (at node 9)
	maximum = 0.017 (at node 11)
Accepted packet rate average = 0.010375
	minimum = 0.005 (at node 12)
	maximum = 0.017 (at node 2)
Injected flit rate average = 0.010375
	minimum = 0.006 (at node 9)
	maximum = 0.017 (at node 11)
Accepted flit rate average= 0.010375
	minimum = 0.005 (at node 12)
	maximum = 0.017 (at node 2)
Injected packet length average = 1
Accepted packet length average = 1
Total in-flight flits = 2 (2 measured)
latency change    = 0.00973828
throughput change = 0.0120482
Class 0:
Packet latency average = 19.7869
	minimum = 7
	maximum = 52
Network latency average = 19.7869
	minimum = 7
	maximum = 52
Slowest packet = 3444
Flit latency average = 19.7846
	minimum = 7
	maximum = 52
Slowest flit = 3444
Fragmentation average = 0
	minimum = 0
	maximum = 0
Injected packet rate average = 0.0102917
	minimum = 0.00666667 (at node 2)
	maximum = 0.014 (at node 11)
Accepted packet rate average = 0.01025
	minimum = 0.00666667 (at node 9)
	maximum = 0.0146667 (at node 5)
Injected flit rate average = 0.0102917
	minimum = 0.00666667 (at node 2)
	maximum = 0.014 (at node 11)
Accepted flit rate average= 0.01025
	minimum = 0.00666667 (at node 9)
	maximum = 0.0146667 (at node 5)
Injected packet length average = 1
Accepted packet length average = 1
Total in-flight flits = 3 (3 measured)
latency change    = 0.0126195
throughput change = 0.0121951
Class 0:
Packet latency average = 19.805
	minimum = 7
	maximum = 52
Network latency average = 19.805
	minimum = 7
	maximum = 52
Slowest packet = 3444
Flit latency average = 19.8031
	minimum = 7
	maximum = 52
Slowest flit = 3444
Fragmentation average = 0
	minimum = 0
	maximum = 0
Injected packet rate average = 0.01025
	minimum = 0.0055 (at node 10)
	maximum = 0.0145 (at node 11)
Accepted packet rate average = 0.0101563
	minimum = 0.006 (at node 12)
	maximum = 0.0145 (at node 2)
Injected flit rate average = 0.01025
	minimum = 0.0055 (at node 10)
	maximum = 0.0145 (at node 11)
Accepted flit rate average= 0.0101563
	minimum = 0.006 (at node 12)
	maximum = 0.0145 (at node 2)
Injected packet length average = 1
Accepted packet length average = 1
Total in-flight flits = 5 (5 measured)
latency change    = 0.000912313
throughput change = 0.00923077
Draining all recorded packets ...
Draining remaining packets ...
Time taken is 3533 cycles
Class 0:
Packet latency average = 21.0854
	minimum = 7
	maximum = 57
Network latency average = 21.0854
	minimum = 7
	maximum = 57
Slowest packet = 3675
Flit latency average = 21.0854
	minimum = 7
	maximum = 57
Slowest flit = 3675
Fragmentation average = 0
	minimum = 0
	maximum = 0
Injected packet rate average = 0.01025
	minimum = 0.004 (at node 1)
	maximum = 0.016 (at node 12)
Accepted packet rate average = 0.01025
	minimum = 0.006 (at node 10)
	maximum = 0.018 (at node 0)
Injected flit rate average = 0.01025
	minimum = 0.004 (at node 1)
	maximum = 0.016 (at node 12)
Accepted flit rate average= 0.01025
	minimum = 0.006 (at node 10)
	maximum = 0.018 (at node 0)
Injected packet length average = 1
Accepted packet length average = 1
Total in-flight flits = 0 (0 measured)
latency change    = 1
throughput change = 1
Class 0:
Packet latency average = 21.7346
	minimum = 7
	maximum = 74
Network latency average = 21.7346
	minimum = 7
	maximum = 74
Slowest packet = 3756
Flit latency average = 21.7346
	minimum = 7
	maximum = 74
Slowest flit = 3756
Fragmentation average = 0
	minimum = 0
	maximum = 0
Injected packet rate average = 0.0103125
	minimum = 0.003 (at node 1)
	maximum = 0.015 (at node 12)
Accepted packet rate average = 0.010125
	minimum = 0.006 (at node 10)
	maximum = 0.015 (at node 6)
Injected flit rate average = 0.0103125
	minimum = 0.003 (at node 1)
	maximum = 0.015 (at node 12)
Accepted flit rate average= 0.010125
	minimum = 0.006 (at node 10)
	maximum = 0.015 (at node 6)
Injected packet length average = 1
Accepted packet length average = 1
Total in-flight flits = 3 (0 measured)
latency change    = 0.0298696
throughput change = 0.0123457
Class 0:
Packet latency average = 22.5172
	minimum = 7
	maximum = 47
Network latency average = 22.5172
	minimum = 7
	maximum = 47
Slowest packet = 3825
Flit latency average = 22.5172
	minimum = 7
	maximum = 47
Slowest flit = 3825
Fragmentation average = 0
	minimum = 0
	maximum = 0
Injected packet rate average = 0.007375
	minimum = 0 (at node 0)
	maximum = 0.016 (at node 4)
Accepted packet rate average = 0.00725
	minimum = 0 (at node 8)
	maximum = 0.018 (at node 7)
Injected flit rate average = 0.007375
	minimum = 0 (at node 0)
	maximum = 0.016 (at node 4)
Accepted flit rate average= 0.00725
	minimum = 0 (at node 8)
	maximum = 0.018 (at node 7)
Injected packet length average = 1
Accepted packet length average = 1
Total in-flight flits = 4 (0 measured)
latency change    = 0.0347589
throughput change = 0.396552
Warmed up ...Time used is 1500 cycles
Class 0:
Packet latency average = 18.9104
	minimum = 7
	maximum = 42
Network latency average = 18.9104
	minimum = 7
	maximum = 42
Slowest packet = 3929
Flit latency average = 19.2254
	minimum = 7
	maximum = 42
Slowest flit = 3929
Fragmentation average = 0
	minimum = 0
	maximum = 0
Injected packet rate average = 0.0085
	minimum = 0.002 (at node 14)
	maximum = 0.016 (at node 11)
Accepted packet rate average = 0.008875
	minimum = 0.004 (at node 2)
	maximum = 0.018 (at node 1)
Injected flit rate average = 0.0085
	minimum = 0.002 (at node 14)
	maximum = 0.016 (at node 11)
Accepted flit rate average= 0.008875
	minimum = 0.004 (at node 2)
	maximum = 0.018 (at node 1)
Injected packet length average = 1
Accepted packet length average = 1
Total in-flight flits = 1 (1 measured)
latency change    = 0.19073
throughput change = 0.183099
Class 0:
Packet latency average = 19.6528
	minimum = 7
	maximum = 52
Network latency average = 19.6528
	minimum = 7
	maximum = 52
Slowest packet = 3959
Flit latency average = 19.7838
	minimum = 7
	maximum = 52
Slowest flit = 3959
Fragmentation average = 0
	minimum = 0
	maximum = 0
Injected packet rate average = 0.0093125
	minimum = 0.005 (at node 5)
	maximum = 0.014 (at node 15)
Accepted packet rate average = 0.00925
	minimum = 0.005 (at node 8)
	maximum = 0.014 (at node 4)
Injected flit rate average = 0.0093125
	minimum = 0.005 (at node 5)
	maximum = 0.014 (at node 15)
Accepted flit rate average= 0.00925
	minimum = 0.005 (at node 8)
	maximum = 0.014 (at node 4)
Injected packet length average = 1
Accepted packet length average = 1
Total in-flight flits = 5 (5 measured)
latency change    = 0.0377723
throughput change = 0.0405405
Class 0:
Packet latency average = 20.6425
	minimum = 7
	maximum = 57
Network latency average = 20.6425
	minimum = 7
	maximum = 57
Slowest packet = 4077
Flit latency average = 20.7111
	minimum = 7
	maximum = 57
Slowest flit = 4077
Fragmentation average = 0
	minimum = 0
	maximum = 0
Injected packet rate average = 0.00941667
	minimum = 0.00333333 (at node 5)
	maximum = 0.0133333 (at node 12)
Accepted packet rate average = 0.009375
	minimum = 0.00466667 (at node 8)
	maximum = 0.0133333 (at node 4)
Injected flit rate average = 0.00941667
	minimum = 0.00333333 (at node 5)
	maximum = 0.0133333 (at node 12)
Accepted flit rate average= 0.009375
	minimum = 0.00466667 (at node 8)
	maximum = 0.0133333 (at node 4)
Injected packet length average = 1
Accepted packet length average = 1
Total in-flight flits = 5 (5 measured)
latency change    = 0.0479474
throughput change = 0.0133333
Class 0:
Packet latency average = 21.1097
	minimum = 7
	maximum = 57
Network latency average = 21.1097
	minimum = 7
	maximum = 57
Slowest packet = 4077
Flit latency average = 21.1529
	minimum = 7
	maximum = 57
Slowest flit = 4077
Fragmentation average = 0
	minimum = 0
	maximum = 0
Injected packet rate average = 0.00984375
	minimum = 0.004 (at node 5)
	maximum = 0.013 (at node 15)
Accepted packet rate average = 0.0098125
	minimum = 0.0055 (at node 14)
	maximum = 0.013 (at node 13)
Injected flit rate average = 0.00984375
	minimum = 0.004 (at node 5)
	maximum = 0.013 (at node 15)
Accepted flit rate average= 0.0098125
	minimum = 0.0055 (at node 14)
	maximum = 0.013 (at node 13)
Injected packet length average = 1
Accepted packet length average = 1
Total in-flight flits = 5 (5 measured)
latency change    = 0.0221294
throughput change = 0.044586
Draining all recorded packets ...
Draining remaining packets ...
Time taken is 3552 cycles
Class 0:
Packet latency average = 21.6962
	minimum = 7
	maximum = 52
Network latency average = 21.6962
	minimum = 7
	maximum = 52
Slowest packet = 4280
Flit latency average = 21.6962
	minimum = 7
	maximum = 52
Slowest flit = 4280
Fragmentation average = 0
	minimum = 0
	maximum = 0
Injected packet rate average = 0.010125
	minimum = 0.002 (at node 12)
	maximum = 0.026 (at node 4)
Accepted packet rate average = 0.009875
	minimum = 0.004 (at node 7)
	maximum = 0.02 (at node 9)
Injected flit rate average = 0.010125
	minimum = 0.002 (at node 12)
	maximum = 0.026 (at node 4)
Accepted flit rate average= 0.009875
	minimum = 0.004 (at node 7)
	maximum = 0.02 (at node 9)
Injected packet length average = 1
Accepted packet length average = 1
Total in-flight flits = 2 (0 measured)
latency change    = 1
throughput change = 1
Class 0:
Packet latency average = 21.425
	minimum = 7
	maximum = 52
Network latency average = 21.425
	minimum = 7
	maximum = 52
Slowest packet = 4280
Flit latency average = 21.425
	minimum = 7
	maximum = 52
Slowest flit = 4280
Fragmentation average = 0
	minimum = 0
	maximum = 0
Injected packet rate average = 0.01
	minimum = 0.005 (at node 12)
	maximum = 0.019 (at node 4)
Accepted packet rate average = 0.01
	minimum = 0.005 (at node 1)
	maximum = 0.018 (at node 0)
Injected flit rate average = 0.01
	minimum = 0.005 (at node 12)
	maximum = 0.019 (at node 4)
Accepted flit rate average= 0.01
	minimum = 0.005 (at node 1)
	maximum = 0.018 (at node 0)
Injected packet length average = 1
Accepted packet length average = 1
Total in-flight flits = 0 (0 measured)
latency change    = 0.0126582
throughput change = 0.0125
Class 0:
Packet latency average = 22.9011
	minimum = 7
	maximum = 57
Network latency average = 22.9011
	minimum = 7
	maximum = 57
Slowest packet = 4381
Flit latency average = 22.9011
	minimum = 7
	maximum = 57
Slowest flit = 4381
Fragmentation average = 0
	minimum = 0
	maximum = 0
Injected packet rate average = 0.011875
	minimum = 0.006 (at node 4)
	maximum = 0.02 (at node 9)
Accepted packet rate average = 0.011375
	minimum = 0.002 (at node 7)
	maximum = 0.02 (at node 15)
Injected flit rate average = 0.011875
	minimum = 0.006 (at node 4)
	maximum = 0.02 (at node 9)
Accepted flit rate average= 0.011375
	minimum = 0.002 (at node 7)
	maximum = 0.02 (at node 15)
Injected packet length average = 1
Accepted packet length average = 1
Total in-flight flits = 4 (0 measured)
latency change    = 0.0644554
throughput change = 0.120879
Warmed up ...Time used is 1500 cycles
Class 0:
Packet latency average = 20.5195
	minimum = 7
	maximum = 49
Network latency average = 20.5195
	minimum = 7
	maximum = 49
Slowest packet = 4496
Flit latency average = 21.1481
	minimum = 7
	maximum = 49
Slowest flit = 4496
Fragmentation average = 0
	minimum = 0
	maximum = 0
Injected packet rate average = 0.009875
	minimum = 0.002 (at node 7)
	maximum = 0.016 (at node 2)
Accepted packet rate average = 0.010125
	minimum = 0 (at node 14)
	maximum = 0.018 (at node 13)
Injected flit rate average = 0.009875
	minimum = 0.002 (at node 7)
	maximum = 0.016 (at node 2)
Accepted flit rate average= 0.010125
	minimum = 0 (at node 14)
	maximum = 0.018 (at node 13)
Injected packet length average = 1
Accepted packet length average = 1
Total in-flight flits = 2 (2 measured)
latency change    = 0.116066
throughput change = 0.123457
Class 0:
Packet latency average = 20.6705
	minimum = 7
	maximum = 49
Network latency average = 20.6705
	minimum = 7
	maximum = 49
Slowest packet = 4496
Flit latency average = 20.95
	minimum = 7
	maximum = 49
Slowest flit = 4496
Fragmentation average = 0
	minimum = 0
	maximum = 0
Injected packet rate average = 0.011375
	minimum = 0.004 (at node 7)
	maximum = 0.018 (at node 10)
Accepted packet rate average = 0.01125
	minimum = 0.005 (at node 11)
	maximum = 0.017 (at node 5)
Injected flit rate average = 0.011375
	minimum = 0.004 (at node 7)
	maximum = 0.018 (at node 10)
Accepted flit rate average= 0.01125
	minimum = 0.005 (at node 11)
	maximum = 0.017 (at node 5)
Injected packet length average = 1
Accepted packet length average = 1
Total in-flight flits = 6 (6 measured)
latency change    = 0.00730386
throughput change = 0.1
Class 0:
Packet latency average = 20.3548
	minimum = 7
	maximum = 49
Network latency average = 20.3548
	minimum = 7
	maximum = 49
Slowest packet = 4496
Flit latency average = 20.5595
	minimum = 7
	maximum = 49
Slowest flit = 4496
Fragmentation average = 0
	minimum = 0
	maximum = 0
Injected packet rate average = 0.0105417
	minimum = 0.00466667 (at node 7)
	maximum = 0.0153333 (at node 10)
Accepted packet rate average = 0.0105
	minimum = 0.006 (at node 11)
	maximum = 0.016 (at node 0)
Injected flit rate average = 0.0105417
	minimum = 0.00466667 (at node 7)
	maximum = 0.0153333 (at node 10)
Accepted flit rate average= 0.0105
	minimum = 0.006 (at node 11)
	maximum = 0.016 (at node 0)
Injected packet length average = 1
Accepted packet length average = 1
Total in-flight flits = 5 (5 measured)
latency change    = 0.0155057
throughput change = 0.0714286
Class 0:
Packet latency average = 20.5455
	minimum = 7
	maximum = 49
Network latency average = 20.5455
	minimum = 7
	maximum = 49
Slowest packet = 4496
Flit latency average = 20.6976
	minimum = 7
	maximum = 49
Slowest flit = 4496
Fragmentation average = 0
	minimum = 0
	maximum = 0
Injected packet rate average = 0.0103438
	minimum = 0.0055 (at node 5)
	maximum = 0.014 (at node 2)
Accepted packet rate average = 0.0104375
	minimum = 0.007 (at node 14)
	maximum = 0.0155 (at node 0)
Injected flit rate average = 0.0103438
	minimum = 0.0055 (at node 5)
	maximum = 0.014 (at node 2)
Accepted flit rate average= 0.0104375
	minimum = 0.007 (at node 14)
	maximum = 0.0155 (at node 0)
Injected packet length average = 1
Accepted packet length average = 1
Total in-flight flits = 1 (1 measured)
latency change    = 0.00927776
throughput change = 0.00598802
Class 0:
Packet latency average = 20.4665
	minimum = 7
	maximum = 55
Network latency average = 20.4665
	minimum = 7
	maximum = 55
Slowest packet = 4846
Flit latency average = 20.5877
	minimum = 7
	maximum = 55
Slowest flit = 4846
Fragmentation average = 0
	minimum = 0
	maximum = 0
Injected packet rate average = 0.0106
	minimum = 0.0068 (at node 7)
	maximum = 0.0144 (at node 4)
Accepted packet rate average = 0.01055
	minimum = 0.0068 (at node 14)
	maximum = 0.0156 (at node 0)
Injected flit rate average = 0.0106
	minimum = 0.0068 (at node 7)
	maximum = 0.0144 (at node 4)
Accepted flit rate average= 0.01055
	minimum = 0.0068 (at node 14)
	maximum = 0.0156 (at node 0)
Injected packet length average = 1
Accepted packet length average = 1
Total in-flight flits = 6 (6 measured)
latency change    = 0.00385739
throughput change = 0.0106635
Class 0:
Packet latency average = 20.1039
	minimum = 7
	maximum = 55
Network latency average = 20.1039
	minimum = 7
	maximum = 55
Slowest packet = 4846
Flit latency average = 20.2101
	minimum = 7
	maximum = 55
Slowest flit = 4846
Fragmentation average = 0
	minimum = 0
	maximum = 0
Injected packet rate average = 0.0102917
	minimum = 0.00666667 (at node 7)
	maximum = 0.0136667 (at node 8)
Accepted packet rate average = 0.0103125
	minimum = 0.00666667 (at node 14)
	maximum = 0.014 (at node 0)
Injected flit rate average = 0.0102917
	minimum = 0.00666667 (at node 7)
	maximum = 0.0136667 (at node 8)
Accepted flit rate average= 0.0103125
	minimum = 0.00666667 (at node 14)
	maximum = 0.014 (at node 0)
Injected packet length average = 1
Accepted packet length average = 1
Total in-flight flits = 3 (3 measured)
latency change    = 0.0180382
throughput change = 0.0230303
Draining all recorded packets ...
Draining remaining packets ...
Time taken is 4573 cycles
Class 0:
Packet latency average = 22.3855
	minimum = 7
	maximum = 52
Network latency average = 22.3855
	minimum = 7
	maximum = 52
Slowest packet = 4988
Flit latency average = 22.3855
	minimum = 7
	maximum = 52
Slowest flit = 4988
Fragmentation average = 0
	minimum = 0
	maximum = 0
Injected packet rate average = 0.010375
	minimum = 0.004 (at node 9)
	maximum = 0.02 (at node 12)
Accepted packet rate average = 0.010375
	minimum = 0.004 (at node 3)
	maximum = 0.026 (at node 11)
Injected flit rate average = 0.010375
	minimum = 0.004 (at node 9)
	maximum = 0.02 (at node 12)
Accepted flit rate average= 0.010375
	minimum = 0.004 (at node 3)
	maximum = 0.026 (at node 11)
Injected packet length average = 1
Accepted packet length average = 1
Total in-flight flits = 0 (0 measured)
latency change    = 1
throughput change = 1
Class 0:
Packet latency average = 21.3333
	minimum = 7
	maximum = 52
Network latency average = 21.3333
	minimum = 7
	maximum = 52
Slowest packet = 4988
Flit latency average = 21.3333
	minimum = 7
	maximum = 52
Slowest flit = 4988
Fragmentation average = 0
	minimum = 0
	maximum = 0
Injected packet rate average = 0.009375
	minimum = 0.006 (at node 1)
	maximum = 0.014 (at node 14)
Accepted packet rate average = 0.0091875
	minimum = 0.004 (at node 3)
	maximum = 0.016 (at node 11)
Injected flit rate average = 0.009375
	minimum = 0.006 (at node 1)
	maximum = 0.014 (at node 14)
Accepted flit rate average= 0.0091875
	minimum = 0.004 (at node 3)
	maximum = 0.016 (at node 11)
Injected packet length average = 1
Accepted packet length average = 1
Total in-flight flits = 3 (0 measured)
latency change    = 0.0493223
throughput change = 0.129252
Class 0:
Packet latency average = 19.8068
	minimum = 7
	maximum = 52
Network latency average = 19.8068
	minimum = 7
	maximum = 52
Slowest packet = 5121
Flit latency average = 19.8068
	minimum = 7
	maximum = 52
Slowest flit = 5121
Fragmentation average = 0
	minimum = 0
	maximum = 0
Injected packet rate average = 0.010875
	minimum = 0.002 (at node 0)
	maximum = 0.018 (at node 9)
Accepted packet rate average = 0.011
	minimum = 0.002 (at node 15)
	maximum = 0.022 (at node 11)
Injected flit rate average = 0.010875
	minimum = 0.002 (at node 0)
	maximum = 0.018 (at node 9)
Accepted flit rate average= 0.011
	minimum = 0.002 (at node 15)
	maximum = 0.022 (at node 11)
Injected packet length average = 1
Accepted packet length average = 1
Total in-flight flits = 2 (0 measured)
latency change    = 0.0770702
throughput change = 0.164773
Warmed up ...Time used is 1500 cycles
Class 0:
Packet latency average = 21.7176
	minimum = 7
	maximum = 57
Network latency average = 21.7176
	minimum = 7
	maximum = 57
Slowest packet = 5247
Flit latency average = 22.1264
	minimum = 7
	maximum = 57
Slowest flit = 5247
Fragmentation average = 0
	minimum = 0
	maximum = 0
Injected packet rate average = 0.011
	minimum = 0.004 (at node 0)
	maximum = 0.02 (at node 15)
Accepted packet rate average = 0.010875
	minimum = 0.006 (at node 4)
	maximum = 0.022 (at node 10)
Injected flit rate average = 0.011
	minimum = 0.004 (at node 0)
	maximum = 0.02 (at node 15)
Accepted flit rate average= 0.010875
	minimum = 0.006 (at node 4)
	maximum = 0.022 (at node 10)
Injected packet length average = 1
Accepted packet length average = 1
Total in-flight flits = 3 (3 measured)
latency change    = 0.0879851
throughput change = 0.0114943
Class 0:
Packet latency average = 21.8494
	minimum = 7
	maximum = 57
Network latency average = 21.8494
	minimum = 7
	maximum = 57
Slowest packet = 5247
Flit latency average = 22.0595
	minimum = 7
	maximum = 57
Slowest flit = 5247
Fragmentation average = 0
	minimum = 0
	maximum = 0
Injected packet rate average = 0.0106875
	minimum = 0.003 (at node 0)
	maximum = 0.016 (at node 6)
Accepted packet rate average = 0.0105
	minimum = 0.007 (at node 5)
	maximum = 0.017 (at node 10)
Injected flit rate average = 0.0106875
	minimum = 0.003 (at node 0)
	maximum = 0.016 (at node 6)
Accepted flit rate average= 0.0105
	minimum = 0.007 (at node 5)
	maximum = 0.017 (at node 10)
Injected packet length average = 1
Accepted packet length average = 1
Total in-flight flits = 5 (5 measured)
latency change    = 0.00602994
throughput change = 0.0357143
Class 0:
Packet latency average = 21.2383
	minimum = 7
	maximum = 57
Network latency average = 21.2383
	minimum = 7
	maximum = 57
Slowest packet = 5247
Flit latency average = 21.3924
	minimum = 7
	maximum = 57
Slowest flit = 5247
Fragmentation average = 0
	minimum = 0
	maximum = 0
Injected packet rate average = 0.00983333
	minimum = 0.006 (at node 9)
	maximum = 0.0146667 (at node 6)
Accepted packet rate average = 0.009875
	minimum = 0.006 (at node 5)
	maximum = 0.014 (at node 2)
Injected flit rate average = 0.00983333
	minimum = 0.006 (at node 9)
	maximum = 0.0146667 (at node 6)
Accepted flit rate average= 0.009875
	minimum = 0.006 (at node 5)
	maximum = 0.014 (at node 2)
Injected packet length average = 1
Accepted packet length average = 1
Total in-flight flits = 1 (1 measured)
latency change    = 0.0287735
throughput change = 0.0632911
Class 0:
Packet latency average = 21.5868
	minimum = 7
	maximum = 57
Network latency average = 21.5868
	minimum = 7
	maximum = 57
Slowest packet = 5247
Flit latency average = 21.6991
	minimum = 7
	maximum = 57
Slowest flit = 5247
Fragmentation average = 0
	minimum = 0
	maximum = 0
Injected packet rate average = 0.0099375
	minimum = 0.0065 (at node 14)
	maximum = 0.0155 (at node 11)
Accepted packet rate average = 0.00996875
	minimum = 0.007 (at node 4)
	maximum = 0.0125 (at node 2)
Injected flit rate average = 0.0099375
	minimum = 0.0065 (at node 14)
	maximum = 0.0155 (at node 11)
Accepted flit rate average= 0.00996875
	minimum = 0.007 (at node 4)
	maximum = 0.0125 (at node 2)
Injected packet length average = 1
Accepted packet length average = 1
Total in-flight flits = 1 (1 measured)
latency change    = 0.016142
throughput change = 0.00940439
Class 0:
Packet latency average = 21.5077
	minimum = 7
	maximum = 57
Network latency average = 21.5077
	minimum = 7
	maximum = 57
Slowest packet = 5247
Flit latency average = 21.6
	minimum = 7
	maximum = 57
Slowest flit = 5247
Fragmentation average = 0
	minimum = 0
	maximum = 0
Injected packet rate average = 0.00985
	minimum = 0.0072 (at node 0)
	maximum = 0.0148 (at node 11)
Accepted packet rate average = 0.00975
	minimum = 0.0076 (at node 5)
	maximum = 0.0116 (at node 7)
Injected flit rate average = 0.00985
	minimum = 0.0072 (at node 0)
	maximum = 0.0148 (at node 11)
Accepted flit rate average= 0.00975
	minimum = 0.0076 (at node 5)
	maximum = 0.0116 (at node 7)
Injected packet length average = 1
Accepted packet length average = 1
Total in-flight flits = 6 (6 measured)
latency change    = 0.00367397
throughput change = 0.0224359
Class 0:
Packet latency average = 21.7797
	minimum = 7
	maximum = 57
Network latency average = 21.7797
	minimum = 7
	maximum = 57
Slowest packet = 5247
Flit latency average = 21.8544
	minimum = 7
	maximum = 57
Slowest flit = 5247
Fragmentation average = 0
	minimum = 0
	maximum = 0
Injected packet rate average = 0.00983333
	minimum = 0.00733333 (at node 12)
	maximum = 0.015 (at node 7)
Accepted packet rate average = 0.009875
	minimum = 0.007 (at node 14)
	maximum = 0.0123333 (at node 9)
Injected flit rate average = 0.00983333
	minimum = 0.00733333 (at node 12)
	maximum = 0.015 (at node 7)
Accepted flit rate average= 0.009875
	minimum = 0.007 (at node 14)
	maximum = 0.0123333 (at node 9)
Injected packet length average = 1
Accepted packet length average = 1
Total in-flight flits = 0 (0 measured)
latency change    = 0.0124855
throughput change = 0.0126582
Draining all recorded packets ...
Draining remaining packets ...
Time taken is 4502 cycles
Class 0:
Packet latency average = 21.7333
	minimum = 7
	maximum = 47
Network latency average = 21.7333
	minimum = 7
	maximum = 47
Slowest packet = 5725
Flit latency average = 21.7333
	minimum = 7
	maximum = 47
Slowest flit = 5725
Fragmentation average = 0
	minimum = 0
	maximum = 0
Injected packet rate average = 0.009875
	minimum = 0.002 (at node 0)
	maximum = 0.016 (at node 1)
Accepted packet rate average = 0.009375
	minimum = 0.002 (at node 10)
	maximum = 0.014 (at node 4)
Injected flit rate average = 0.009875
	minimum = 0.002 (at node 0)
	maximum = 0.016 (at node 1)
Accepted flit rate average= 0.009375
	minimum = 0.002 (at node 10)
	maximum = 0.014 (at node 4)
Injected packet length average = 1
Accepted packet length average = 1
Total in-flight flits = 4 (0 measured)
latency change    = 1
throughput change = 1
Class 0:
Packet latency average = 20.6556
	minimum = 7
	maximum = 47
Network latency average = 20.6556
	minimum = 7
	maximum = 47
Slowest packet = 5725
Flit latency average = 20.6556
	minimum = 7
	maximum = 47
Slowest flit = 5725
Fragmentation average = 0
	minimum = 0
	maximum = 0
Injected packet rate average = 0.0095625
	minimum = 0.006 (at node 0)
	maximum = 0.014 (at node 3)
Accepted packet rate average = 0.0094375
	minimum = 0.007 (at node 10)
	maximum = 0.016 (at node 15)
Injected flit rate average = 0.0095625
	minimum = 0.006 (at node 0)
	maximum = 0.014 (at node 3)
Accepted flit rate average= 0.0094375
	minimum = 0.007 (at node 10)
	maximum = 0.016 (at node 15)
Injected packet length average = 1
Accepted packet length average = 1
Total in-flight flits = 2 (0 measured)
latency change    = 0.0521748
throughput change = 0.00662252
Class 0:
Packet latency average = 21.0725
	minimum = 7
	maximum = 47
Network latency average = 21.0725
	minimum = 7
	maximum = 47
Slowest packet = 5867
Flit latency average = 21.0725
	minimum = 7
	maximum = 47
Slowest flit = 5867
Fragmentation average = 0
	minimum = 0
	maximum = 0
Injected packet rate average = 0.008875
	minimum = 0 (at node 6)
	maximum = 0.016 (at node 15)
Accepted packet rate average = 0.008625
	minimum = 0.004 (at node 11)
	maximum = 0.012 (at node 4)
Injected flit rate average = 0.008875
	minimum = 0 (at node 6)
	maximum = 0.016 (at node 15)
Accepted flit rate average= 0.008625
	minimum = 0.004 (at node 11)
	maximum = 0.012 (at node 4)
Injected packet length average = 1
Accepted packet length average = 1
Total in-flight flits = 4 (0 measured)
latency change    = 0.019781
throughput change = 0.0942029
Warmed up ...Time used is 1500 cycles
Class 0:
Packet latency average = 18.7722
	minimum = 7
	maximum = 37
Network latency average = 18.7722
	minimum = 7
	maximum = 37
Slowest packet = 5898
Flit latency average = 19.2892
	minimum = 7
	maximum = 37
Slowest flit = 5891
Fragmentation average = 0
	minimum = 0
	maximum = 0
Injected packet rate average = 0.010375
	minimum = 0.002 (at node 15)
	maximum = 0.02 (at node 7)
Accepted packet rate average = 0.010375
	minimum = 0.002 (at node 13)
	maximum = 0.016 (at node 2)
Injected flit rate average = 0.010375
	minimum = 0.002 (at node 15)
	maximum = 0.02 (at node 7)
Accepted flit rate average= 0.010375
	minimum = 0.002 (at node 13)
	maximum = 0.016 (at node 2)
Injected packet length average = 1
Accepted packet length average = 1
Total in-flight flits = 4 (4 measured)
latency change    = 0.122539
throughput change = 0.168675
Class 0:
Packet latency average = 19.8544
	minimum = 7
	maximum = 57
Network latency average = 19.8544
	minimum = 7
	maximum = 57
Slowest packet = 6021
Flit latency average = 20.0926
	minimum = 7
	maximum = 57
Slowest flit = 6021
Fragmentation average = 0
	minimum = 0
	maximum = 0
Injected packet rate average = 0.0100625
	minimum = 0.005 (at node 11)
	maximum = 0.017 (at node 7)
Accepted packet rate average = 0.010125
	minimum = 0.006 (at node 7)
	maximum = 0.014 (at node 4)
Injected flit rate average = 0.0100625
	minimum = 0.005 (at node 11)
	maximum = 0.017 (at node 7)
Accepted flit rate average= 0.010125
	minimum = 0.006 (at node 7)
	maximum = 0.014 (at node 4)
Injected packet length average = 1
Accepted packet length average = 1
Total in-flight flits = 3 (3 measured)
latency change    = 0.0545107
throughput change = 0.0246914
Class 0:
Packet latency average = 20.4378
	minimum = 7
	maximum = 57
Network latency average = 20.4378
	minimum = 7
	maximum = 57
Slowest packet = 6021
Flit latency average = 20.5907
	minimum = 7
	maximum = 57
Slowest flit = 6021
Fragmentation average = 0
	minimum = 0
	maximum = 0
Injected packet rate average = 0.00975
	minimum = 0.00666667 (at node 11)
	maximum = 0.0153333 (at node 7)
Accepted packet rate average = 0.009875
	minimum = 0.006 (at node 9)
	maximum = 0.0133333 (at node 3)
Injected flit rate average = 0.00975
	minimum = 0.00666667 (at node 11)
	maximum = 0.0153333 (at node 7)
Accepted flit rate average= 0.009875
	minimum = 0.006 (at node 9)
	maximum = 0.0133333 (at node 3)
Injected packet length average = 1
Accepted packet length average = 1
Total in-flight flits = 1 (1 measured)
latency change    = 0.0285422
throughput change = 0.0253165
Class 0:
Packet latency average = 20.3841
	minimum = 7
	maximum = 57
Network latency average = 20.3841
	minimum = 7
	maximum = 57
Slowest packet = 6021
Flit latency average = 20.5033
	minimum = 7
	maximum = 57
Slowest flit = 6021
Fragmentation average = 0
	minimum = 0
	maximum = 0
Injected packet rate average = 0.00946875
	minimum = 0.006 (at node 12)
	maximum = 0.0125 (at node 0)
Accepted packet rate average = 0.0095625
	minimum = 0.0055 (at node 15)
	maximum = 0.012 (at node 8)
Injected flit rate average = 0.00946875
	minimum = 0.006 (at node 12)
	maximum = 0.0125 (at node 0)
Accepted flit rate average= 0.0095625
	minimum = 0.0055 (at node 15)
	maximum = 0.012 (at node 8)
Injected packet length average = 1
Accepted packet length average = 1
Total in-flight flits = 1 (1 measured)
latency change    = 0.00263256
throughput change = 0.0326797
Class 0:
Packet latency average = 20.4811
	minimum = 7
	maximum = 59
Network latency average = 20.4811
	minimum = 7
	maximum = 59
Slowest packet = 6225
Flit latency average = 20.5775
	minimum = 7
	maximum = 59
Slowest flit = 6225
Fragmentation average = 0
	minimum = 0
	maximum = 0
Injected packet rate average = 0.0093
	minimum = 0.006 (at node 13)
	maximum = 0.0132 (at node 0)
Accepted packet rate average = 0.00935
	minimum = 0.006 (at node 15)
	maximum = 0.0124 (at node 11)
Injected flit rate average = 0.0093
	minimum = 0.006 (at node 13)
	maximum = 0.0132 (at node 0)
Accepted flit rate average= 0.00935
	minimum = 0.006 (at node 15)
	maximum = 0.0124 (at node 11)
Injected packet length average = 1
Accepted packet length average = 1
Total in-flight flits = 2 (2 measured)
latency change    = 0.00473486
throughput change = 0.0227273
Draining all recorded packets ...
Draining remaining packets ...
Time taken is 4067 cycles
Class 0:
Packet latency average = 19.2386
	minimum = 7
	maximum = 57
Network latency average = 19.2386
	minimum = 7
	maximum = 57
Slowest packet = 6317
Flit latency average = 19.2386
	minimum = 7
	maximum = 57
Slowest flit = 6317
Fragmentation average = 0
	minimum = 0
	maximum = 0
Injected packet rate average = 0.01175
	minimum = 0.002 (at node 14)
	maximum = 0.02 (at node 0)
Accepted packet rate average = 0.011
	minimum = 0.006 (at node 0)
	maximum = 0.022 (at node 10)
Injected flit rate average = 0.01175
	minimum = 0.002 (at node 14)
	maximum = 0.02 (at node 0)
Accepted flit rate average= 0.011
	minimum = 0.006 (at node 0)
	maximum = 0.022 (at node 10)
Injected packet length average = 1
Accepted packet length average = 1
Total in-flight flits = 6 (0 measured)
latency change    = 1
throughput change = 1
Class 0:
Packet latency average = 19.5767
	minimum = 7
	maximum = 57
Network latency average = 19.5767
	minimum = 7
	maximum = 57
Slowest packet = 6317
Flit latency average = 19.5767
	minimum = 7
	maximum = 57
Slowest flit = 6317
Fragmentation average = 0
	minimum = 0
	maximum = 0
Injected packet rate average = 0.01025
	minimum = 0.003 (at node 13)
	maximum = 0.016 (at node 12)
Accepted packet rate average = 0.0101875
	minimum = 0.004 (at node 0)
	maximum = 0.018 (at node 10)
Injected flit rate average = 0.01025
	minimum = 0.003 (at node 13)
	maximum = 0.016 (at node 12)
Accepted flit rate average= 0.0101875
	minimum = 0.004 (at node 0)
	maximum = 0.018 (at node 10)
Injected packet length average = 1
Accepted packet length average = 1
Total in-flight flits = 1 (0 measured)
latency change    = 0.017268
throughput change = 0.0797546
Class 0:
Packet latency average = 21.0714
	minimum = 7
	maximum = 52
Network latency average = 21.0714
	minimum = 7
	maximum = 52
Slowest packet = 6441
Flit latency average = 21.0714
	minimum = 7
	maximum = 52
Slowest flit = 6441
Fragmentation average = 0
	minimum = 0
	maximum = 0
Injected packet rate average = 0.009
	minimum = 0.002 (at node 2)
	maximum = 0.02 (at node 13)
Accepted packet rate average = 0.00875
	minimum = 0.002 (at node 10)
	maximum = 0.016 (at node 1)
Injected flit rate average = 0.009
	minimum = 0.002 (at node 2)
	maximum = 0.02 (at node 13)
Accepted flit rate average= 0.00875
	minimum = 0.002 (at node 10)
	maximum = 0.016 (at node 1)
Injected packet length average = 1
Accepted packet length average = 1
Total in-flight flits = 3 (0 measured)
latency change    = 0.0709369
throughput change = 0.164286
Warmed up ...Time used is 1500 cycles
Class 0:
Packet latency average = 21.5584
	minimum = 7
	maximum = 52
Network latency average = 21.5584
	minimum = 7
	maximum = 52
Slowest packet = 6548
Flit latency average = 21.5125
	minimum = 7
	maximum = 52
Slowest flit = 6548
Fragmentation average = 0
	minimum = 0
	maximum = 0
Injected packet rate average = 0.00975
	minimum = 0.002 (at node 13)
	maximum = 0.018 (at node 8)
Accepted packet rate average = 0.01
	minimum = 0.006 (at node 2)
	maximum = 0.018 (at node 3)
Injected flit rate average = 0.00975
	minimum = 0.002 (at node 13)
	maximum = 0.018 (at node 8)
Accepted flit rate average= 0.01
	minimum = 0.006 (at node 2)
	maximum = 0.018 (at node 3)
Injected packet length average = 1
Accepted packet length average = 1
Total in-flight flits = 1 (1 measured)
latency change    = 0.0225904
throughput change = 0.125
Class 0:
Packet latency average = 21.0069
	minimum = 7
	maximum = 52
Network latency average = 21.0069
	minimum = 7
	maximum = 52
Slowest packet = 6548
Flit latency average = 20.9932
	minimum = 7
	maximum = 52
Slowest flit = 6548
Fragmentation average = 0
	minimum = 0
	maximum = 0
Injected packet rate average = 0.009125
	minimum = 0.004 (at node 13)
	maximum = 0.014 (at node 8)
Accepted packet rate average = 0.0091875
	minimum = 0.007 (at node 2)
	maximum = 0.014 (at node 4)
Injected flit rate average = 0.009125
	minimum = 0.004 (at node 13)
	maximum = 0.014 (at node 8)
Accepted flit rate average= 0.0091875
	minimum = 0.007 (at node 2)
	maximum = 0.014 (at node 4)
Injected packet length average = 1
Accepted packet length average = 1
Total in-flight flits = 2 (2 measured)
latency change    = 0.0262531
throughput change = 0.0884354
Class 0:
Packet latency average = 21.1034
	minimum = 7
	maximum = 57
Network latency average = 21.1034
	minimum = 7
	maximum = 57
Slowest packet = 6729
Flit latency average = 21.0936
	minimum = 7
	maximum = 57
Slowest flit = 6729
Fragmentation average = 0
	minimum = 0
	maximum = 0
Injected packet rate average = 0.00983333
	minimum = 0.006 (at node 13)
	maximum = 0.0133333 (at node 8)
Accepted packet rate average = 0.00979167
	minimum = 0.006 (at node 9)
	maximum = 0.0133333 (at node 3)
Injected flit rate average = 0.00983333
	minimum = 0.006 (at node 13)
	maximum = 0.0133333 (at node 8)
Accepted flit rate average= 0.00979167
	minimum = 0.006 (at node 9)
	maximum = 0.0133333 (at node 3)
Injected packet length average = 1
Accepted packet length average = 1
Total in-flight flits = 4 (4 measured)
latency change    = 0.00457289
throughput change = 0.0617021
Class 0:
Packet latency average = 21.5516
	minimum = 7
	maximum = 57
Network latency average = 21.5516
	minimum = 7
	maximum = 57
Slowest packet = 6729
Flit latency average = 21.5399
	minimum = 7
	maximum = 57
Slowest flit = 6729
Fragmentation average = 0
	minimum = 0
	maximum = 0
Injected packet rate average = 0.00971875
	minimum = 0.0055 (at node 13)
	maximum = 0.0135 (at node 8)
Accepted packet rate average = 0.00978125
	minimum = 0.005 (at node 9)
	maximum = 0.014 (at node 14)
Injected flit rate average = 0.00971875
	minimum = 0.0055 (at node 13)
	maximum = 0.0135 (at node 8)
Accepted flit rate average= 0.00978125
	minimum = 0.005 (at node 9)
	maximum = 0.014 (at node 14)
Injected packet length average = 1
Accepted packet length average = 1
Total in-flight flits = 1 (1 measured)
latency change    = 0.0207949
throughput change = 0.00106496
Class 0:
Packet latency average = 21.2249
	minimum = 7
	maximum = 57
Network latency average = 21.2249
	minimum = 7
	maximum = 57
Slowest packet = 6729
Flit latency average = 21.2178
	minimum = 7
	maximum = 57
Slowest flit = 6729
Fragmentation average = 0
	minimum = 0
	maximum = 0
Injected packet rate average = 0.009525
	minimum = 0.0068 (at node 13)
	maximum = 0.0128 (at node 8)
Accepted packet rate average = 0.009525
	minimum = 0.0056 (at node 9)
	maximum = 0.014 (at node 14)
Injected flit rate average = 0.009525
	minimum = 0.0068 (at node 13)
	maximum = 0.0128 (at node 8)
Accepted flit rate average= 0.009525
	minimum = 0.0056 (at node 9)
	maximum = 0.014 (at node 14)
Injected packet length average = 1
Accepted packet length average = 1
Total in-flight flits = 3 (3 measured)
latency change    = 0.0153945
throughput change = 0.0269029
Class 0:
Packet latency average = 20.9829
	minimum = 7
	maximum = 60
Network latency average = 20.9829
	minimum = 7
	maximum = 60
Slowest packet = 6952
Flit latency average = 20.9787
	minimum = 7
	maximum = 60
Slowest flit = 6952
Fragmentation average = 0
	minimum = 0
	maximum = 0
Injected packet rate average = 0.00985417
	minimum = 0.00766667 (at node 12)
	maximum = 0.013 (at node 14)
Accepted packet rate average = 0.00979167
	minimum = 0.00633333 (at node 9)
	maximum = 0.0146667 (at node 14)
Injected flit rate average = 0.00985417
	minimum = 0.00766667 (at node 12)
	maximum = 0.013 (at node 14)
Accepted flit rate average= 0.00979167
	minimum = 0.00633333 (at node 9)
	maximum = 0.0146667 (at node 14)
Injected packet length average = 1
Accepted packet length average = 1
Total in-flight flits = 6 (6 measured)
latency change    = 0.0115331
throughput change = 0.027234
Draining all recorded packets ...
Draining remaining packets ...
Time taken is 4549 cycles
Class 0:
Packet latency average = 22.8077
	minimum = 7
	maximum = 57
Network latency average = 22.8077
	minimum = 7
	maximum = 57
Slowest packet = 6998
Flit latency average = 22.8077
	minimum = 7
	maximum = 57
Slowest flit = 6998
Fragmentation average = 0
	minimum = 0
	maximum = 0
Injected packet rate average = 0.009875
	minimum = 0.004 (at node 15)
	maximum = 0.014 (at node 4)
Accepted packet rate average = 0.00975
	minimum = 0.002 (at node 0)
	maximum = 0.016 (at node 3)
Injected flit rate average = 0.009875
	minimum = 0.004 (at node 15)
	maximum = 0.014 (at node 4)
Accepted flit rate average= 0.00975
	minimum = 0.002 (at node 0)
	maximum = 0.016 (at node 3)
Injected packet length average = 1
Accepted packet length average = 1
Total in-flight flits = 1 (0 measured)
latency change    = 1
throughput change = 1
Class 0:
Packet latency average = 21.1987
	minimum = 7
	maximum = 57
Network latency average = 21.1987
	minimum = 7
	maximum = 57
Slowest packet = 6998
Flit latency average = 21.1987
	minimum = 7
	maximum = 57
Slowest flit = 6998
Fragmentation average = 0
	minimum = 0
	maximum = 0
Injected packet rate average = 0.0096875
	minimum = 0.007 (at node 15)
	maximum = 0.014 (at node 8)
Accepted packet rate average = 0.0094375
	minimum = 0.003 (at node 6)
	maximum = 0.013 (at node 4)
Injected flit rate average = 0.0096875
	minimum = 0.007 (at node 15)
	maximum = 0.014 (at node 8)
Accepted flit rate average= 0.0094375
	minimum = 0.003 (at node 6)
	maximum = 0.013 (at node 4)
Injected packet length average = 1
Accepted packet length average = 1
Total in-flight flits = 4 (0 measured)
latency change    = 0.0759018
throughput change = 0.0331126
Class 0:
Packet latency average = 21.3678
	minimum = 7
	maximum = 42
Network latency average = 21.3678
	minimum = 7
	maximum = 42
Slowest packet = 7127
Flit latency average = 21.3678
	minimum = 7
	maximum = 42
Slowest flit = 7127
Fragmentation average = 0
	minimum = 0
	maximum = 0
Injected packet rate average = 0.010875
	minimum = 0.002 (at node 6)
	maximum = 0.022 (at node 15)
Accepted packet rate average = 0.010875
	minimum = 0.002 (at node 6)
	maximum = 0.026 (at node 4)
Injected flit rate average = 0.010875
	minimum = 0.002 (at node 6)
	maximum = 0.022 (at node 15)
Accepted flit rate average= 0.010875
	minimum = 0.002 (at node 6)
	maximum = 0.026 (at node 4)
Injected packet length average = 1
Accepted packet length average = 1
Total in-flight flits = 4 (0 measured)
latency change    = 0.00791567
throughput change = 0.132184
Warmed up ...Time used is 1500 cycles
Class 0:
Packet latency average = 21.0133
	minimum = 7
	maximum = 52
Network latency average = 21.0133
	minimum = 7
	maximum = 52
Slowest packet = 7289
Flit latency average = 21.3797
	minimum = 7
	maximum = 52
Slowest flit = 7289
Fragmentation average = 0
	minimum = 0
	maximum = 0
Injected packet rate average = 0.009625
	minimum = 0.002 (at node 15)
	maximum = 0.018 (at node 3)
Accepted packet rate average = 0.009875
	minimum = 0 (at node 11)
	maximum = 0.014 (at node 3)
Injected flit rate average = 0.009625
	minimum = 0.002 (at node 15)
	maximum = 0.018 (at node 3)
Accepted flit rate average= 0.009875
	minimum = 0 (at node 11)
	maximum = 0.014 (at node 3)
Injected packet length average = 1
Accepted packet length average = 1
Total in-flight flits = 2 (2 measured)
latency change    = 0.0168694
throughput change = 0.101266
Class 0:
Packet latency average = 21.2662
	minimum = 7
	maximum = 55
Network latency average = 21.2662
	minimum = 7
	maximum = 55
Slowest packet = 7354
Flit latency average = 21.443
	minimum = 7
	maximum = 55
Slowest flit = 7354
Fragmentation average = 0
	minimum = 0
	maximum = 0
Injected packet rate average = 0.00975
	minimum = 0.005 (at node 13)
	maximum = 0.014 (at node 1)
Accepted packet rate average = 0.009875
	minimum = 0.006 (at node 11)
	maximum = 0.014 (at node 10)
Injected flit rate average = 0.00975
	minimum = 0.005 (at node 13)
	maximum = 0.014 (at node 1)
Accepted flit rate average= 0.009875
	minimum = 0.006 (at node 11)
	maximum = 0.014 (at node 10)
Injected packet length average = 1
Accepted packet length average = 1
Total in-flight flits = 2 (2 measured)
latency change    = 0.0118921
throughput change = 0
Class 0:
Packet latency average = 21.1687
	minimum = 7
	maximum = 57
Network latency average = 21.1687
	minimum = 7
	maximum = 57
Slowest packet = 7441
Flit latency average = 21.2834
	minimum = 7
	maximum = 57
Slowest flit = 7441
Fragmentation average = 0
	minimum = 0
	maximum = 0
Injected packet rate average = 0.01025
	minimum = 0.00666667 (at node 10)
	maximum = 0.0146667 (at node 3)
Accepted packet rate average = 0.0102917
	minimum = 0.00666667 (at node 9)
	maximum = 0.016 (at node 3)
Injected flit rate average = 0.01025
	minimum = 0.00666667 (at node 10)
[...]
Network latency average = 21.5782
	minimum = 7
	maximum = 57
Slowest packet = 30265
Flit latency average = 21.6367
	minimum = 7
	maximum = 57
Slowest flit = 30265
Fragmentation average = 0
	minimum = 0
	maximum = 0
Injected packet rate average = 0.00934375
	minimum = 0.0065 (at node 3)
	maximum = 0.013 (at node 5)
Accepted packet rate average = 0.009375
	minimum = 0.006 (at node 5)
	maximum = 0.0125 (at node 12)
Injected flit rate average = 0.00934375
	minimum = 0.0065 (at node 3)
	maximum = 0.013 (at node 5)
Accepted flit rate average= 0.009375
	minimum = 0.006 (at node 5)
	maximum = 0.0125 (at node 12)
Injected packet length average = 1
Accepted packet length average = 1
Total in-flight flits = 5 (5 measured)
latency change    = 0.000330637
throughput change = 0.0622222
Class 0:
Packet latency average = 21.5885
	minimum = 7
	maximum = 57
Network latency average = 21.5885
	minimum = 7
	maximum = 57
Slowest packet = 30265
Flit latency average = 21.6333
	minimum = 7
	maximum = 57
Slowest flit = 30265
Fragmentation average = 0
	minimum = 0
	maximum = 0
Injected packet rate average = 0.00965
	minimum = 0.006 (at node 12)
	maximum = 0.0132 (at node 5)
Accepted packet rate average = 0.00975
	minimum = 0.0064 (at node 5)
	maximum = 0.0124 (at node 12)
Injected flit rate average = 0.00965
	minimum = 0.006 (at node 12)
	maximum = 0.0132 (at node 5)
Accepted flit rate average= 0.00975
	minimum = 0.0064 (at node 5)
	maximum = 0.0124 (at node 12)
Injected packet length average = 1
Accepted packet length average = 1
Total in-flight flits = 2 (2 measured)
latency change    = 0.000477585
throughput change = 0.0384615
Class 0:
Packet latency average = 21.3644
	minimum = 7
	maximum = 57
Network latency average = 21.3644
	minimum = 7
	maximum = 57
Slowest packet = 30265
Flit latency average = 21.4057
	minimum = 7
	maximum = 57
Slowest flit = 30265
Fragmentation average = 0
	minimum = 0
	maximum = 0
Injected packet rate average = 0.0095
	minimum = 0.00566667 (at node 12)
	maximum = 0.013 (at node 5)
Accepted packet rate average = 0.0095
	minimum = 0.00633333 (at node 5)
	maximum = 0.012 (at node 12)
Injected flit rate average = 0.0095
	minimum = 0.00566667 (at node 12)
	maximum = 0.013 (at node 5)
Accepted flit rate average= 0.0095
	minimum = 0.00633333 (at node 5)
	maximum = 0.012 (at node 12)
Injected packet length average = 1
Accepted packet length average = 1
Total in-flight flits = 6 (6 measured)
latency change    = 0.0104893
throughput change = 0.0263158
Class 0:
Packet latency average = 21.2631
	minimum = 7
	maximum = 57
Network latency average = 21.2631
	minimum = 7
	maximum = 57
Slowest packet = 30265
Flit latency average = 21.2989
	minimum = 7
	maximum = 57
Slowest flit = 30265
Fragmentation average = 0
	minimum = 0
	maximum = 0
Injected packet rate average = 0.009625
	minimum = 0.00628571 (at node 3)
	maximum = 0.0128571 (at node 5)
Accepted packet rate average = 0.00967857
	minimum = 0.00714286 (at node 0)
	maximum = 0.0117143 (at node 12)
Injected flit rate average = 0.009625
	minimum = 0.00628571 (at node 3)
	maximum = 0.0128571 (at node 5)
Accepted flit rate average= 0.00967857
	minimum = 0.00714286 (at node 0)
	maximum = 0.0117143 (at node 12)
Injected packet length average = 1
Accepted packet length average = 1
Total in-flight flits = 3 (3 measured)
latency change    = 0.00476812
throughput change = 0.0184502
Draining all recorded packets ...
Draining remaining packets ...
Time taken is 5019 cycles
Class 0:
Packet latency average = 20.5493
	minimum = 7
	maximum = 43
Network latency average = 20.5493
	minimum = 7
	maximum = 43
Slowest packet = 30746
Flit latency average = 20.5493
	minimum = 7
	maximum = 43
Slowest flit = 30746
Fragmentation average = 0
	minimum = 0
	maximum = 0
Injected packet rate average = 0.00925
	minimum = 0.002 (at node 13)
	maximum = 0.018 (at node 7)
Accepted packet rate average = 0.008875
	minimum = 0.002 (at node 11)
	maximum = 0.018 (at node 12)
Injected flit rate average = 0.00925
	minimum = 0.002 (at node 13)
	maximum = 0.018 (at node 7)
Accepted flit rate average= 0.008875
	minimum = 0.002 (at node 11)
	maximum = 0.018 (at node 12)
Injected packet length average = 1
Accepted packet length average = 1
Total in-flight flits = 3 (0 measured)
latency change    = 1
throughput change = 1
Class 0:
Packet latency average = 21.3784
	minimum = 7
	maximum = 52
Network latency average = 21.3784
	minimum = 7
	maximum = 52
Slowest packet = 30761
Flit latency average = 21.3784
	minimum = 7
	maximum = 52
Slowest flit = 30761
Fragmentation average = 0
	minimum = 0
	maximum = 0
Injected packet rate average = 0.0095
	minimum = 0.004 (at node 13)
	maximum = 0.015 (at node 11)
Accepted packet rate average = 0.00925
	minimum = 0.004 (at node 11)
	maximum = 0.014 (at node 12)
Injected flit rate average = 0.0095
	minimum = 0.004 (at node 13)
	maximum = 0.015 (at node 11)
Accepted flit rate average= 0.00925
	minimum = 0.004 (at node 11)
	maximum = 0.014 (at node 12)
Injected packet length average = 1
Accepted packet length average = 1
Total in-flight flits = 4 (0 measured)
latency change    = 0.0387814
throughput change = 0.0405405
Class 0:
Packet latency average = 20.1081
	minimum = 7
	maximum = 52
Network latency average = 20.1081
	minimum = 7
	maximum = 52
Slowest packet = 30894
Flit latency average = 20.1081
	minimum = 7
	maximum = 52
Slowest flit = 30894
Fragmentation average = 0
	minimum = 0
	maximum = 0
Injected packet rate average = 0.009375
	minimum = 0 (at node 3)
	maximum = 0.018 (at node 5)
Accepted packet rate average = 0.00925
	minimum = 0.004 (at node 2)
	maximum = 0.02 (at node 11)
Injected flit rate average = 0.009375
	minimum = 0 (at node 3)
	maximum = 0.018 (at node 5)
Accepted flit rate average= 0.00925
	minimum = 0.004 (at node 2)
	maximum = 0.02 (at node 11)
Injected packet length average = 1
Accepted packet length average = 1
Total in-flight flits = 5 (0 measured)
latency change    = 0.063172
throughput change = 0
Warmed up ...Time used is 1500 cycles
Class 0:
Packet latency average = 21.4118
	minimum = 7
	maximum = 57
Network latency average = 21.4118
	minimum = 7
	maximum = 57
Slowest packet = 30945
Flit latency average = 21.1781
	minimum = 7
	maximum = 57
Slowest flit = 30945
Fragmentation average = 0
	minimum = 0
	maximum = 0
Injected packet rate average = 0.009
	minimum = 0.002 (at node 4)
	maximum = 0.026 (at node 13)
Accepted packet rate average = 0.009125
	minimum = 0.004 (at node 7)
	maximum = 0.016 (at node 0)
Injected flit rate average = 0.009
	minimum = 0.002 (at node 4)
	maximum = 0.026 (at node 13)
Accepted flit rate average= 0.009125
	minimum = 0.004 (at node 7)
	maximum = 0.016 (at node 0)
Injected packet length average = 1
Accepted packet length average = 1
Total in-flight flits = 4 (4 measured)
latency change    = 0.0608851
throughput change = 0.0136986
Class 0:
Packet latency average = 20.8231
	minimum = 7
	maximum = 57
Network latency average = 20.8231
	minimum = 7
	maximum = 57
Slowest packet = 30945
Flit latency average = 20.7303
	minimum = 7
	maximum = 57
Slowest flit = 30945
Fragmentation average = 0
	minimum = 0
	maximum = 0
Injected packet rate average = 0.009375
	minimum = 0.005 (at node 5)
	maximum = 0.018 (at node 13)
Accepted packet rate average = 0.0095
	minimum = 0.006 (at node 5)
	maximum = 0.013 (at node 6)
Injected flit rate average = 0.009375
	minimum = 0.005 (at node 5)
	maximum = 0.018 (at node 13)
Accepted flit rate average= 0.0095
	minimum = 0.006 (at node 5)
	maximum = 0.013 (at node 6)
Injected packet length average = 1
Accepted packet length average = 1
Total in-flight flits = 3 (3 measured)
latency change    = 0.0282683
throughput change = 0.0394737
Class 0:
Packet latency average = 21.4851
	minimum = 7
	maximum = 57
Network latency average = 21.4851
	minimum = 7
	maximum = 57
Slowest packet = 30945
Flit latency average = 21.4125
	minimum = 7
	maximum = 57
Slowest flit = 30945
Fragmentation average = 0
	minimum = 0
	maximum = 0
Injected packet rate average = 0.009875
	minimum = 0.00666667 (at node 11)
	maximum = 0.0153333 (at node 13)
Accepted packet rate average = 0.01
	minimum = 0.00733333 (at node 9)
	maximum = 0.0133333 (at node 11)
Injected flit rate average = 0.009875
	minimum = 0.00666667 (at node 11)
	maximum = 0.0153333 (at node 13)
Accepted flit rate average= 0.01
	minimum = 0.00733333 (at node 9)
	maximum = 0.0133333 (at node 11)
Injected packet length average = 1
Accepted packet length average = 1
Total in-flight flits = 2 (2 measured)
latency change    = 0.030811
throughput change = 0.05
Class 0:
Packet latency average = 21.2025
	minimum = 7
	maximum = 57
Network latency average = 21.2025
	minimum = 7
	maximum = 57
Slowest packet = 30945
Flit latency average = 21.1541
	minimum = 7
	maximum = 57
Slowest flit = 30945
Fragmentation average = 0
	minimum = 0
	maximum = 0
Injected packet rate average = 0.010375
	minimum = 0.007 (at node 12)
	maximum = 0.0145 (at node 1)
Accepted packet rate average = 0.0103438
	minimum = 0.008 (at node 5)
	maximum = 0.013 (at node 4)
Injected flit rate average = 0.010375
	minimum = 0.007 (at node 12)
	maximum = 0.0145 (at node 1)
Accepted flit rate average= 0.0103438
	minimum = 0.008 (at node 5)
	maximum = 0.013 (at node 4)
Injected packet length average = 1
Accepted packet length average = 1
Total in-flight flits = 6 (6 measured)
latency change    = 0.0133311
throughput change = 0.0332326
Class 0:
Packet latency average = 21.5113
	minimum = 7
	maximum = 57
Network latency average = 21.5113
	minimum = 7
	maximum = 57
Slowest packet = 30945
Flit latency average = 21.4678
	minimum = 7
	maximum = 57
Slowest flit = 30945
Fragmentation average = 0
	minimum = 0
	maximum = 0
Injected packet rate average = 0.01005
	minimum = 0.0064 (at node 12)
	maximum = 0.0136 (at node 1)
Accepted packet rate average = 0.0101
	minimum = 0.008 (at node 5)
	maximum = 0.0132 (at node 1)
Injected flit rate average = 0.01005
	minimum = 0.0064 (at node 12)
	maximum = 0.0136 (at node 1)
Accepted flit rate average= 0.0101
	minimum = 0.008 (at node 5)
	maximum = 0.0132 (at node 1)
Injected packet length average = 1
Accepted packet length average = 1
Total in-flight flits = 3 (3 measured)
latency change    = 0.0143564
throughput change = 0.0241337
Class 0:
Packet latency average = 21.4733
	minimum = 7
	maximum = 57
Network latency average = 21.4733
	minimum = 7
	maximum = 57
Slowest packet = 30945
Flit latency average = 21.4367
	minimum = 7
	maximum = 57
Slowest flit = 30945
Fragmentation average = 0
	minimum = 0
	maximum = 0
Injected packet rate average = 0.0098125
	minimum = 0.00666667 (at node 11)
	maximum = 0.013 (at node 1)
Accepted packet rate average = 0.009875
	minimum = 0.00766667 (at node 5)
	maximum = 0.013 (at node 1)
Injected flit rate average = 0.0098125
	minimum = 0.00666667 (at node 11)
	maximum = 0.013 (at node 1)
Accepted flit rate average= 0.009875
	minimum = 0.00766667 (at node 5)
	maximum = 0.013 (at node 1)
Injected packet length average = 1
Accepted packet length average = 1
Total in-flight flits = 2 (2 measured)
latency change    = 0.00176641
throughput change = 0.0227848
Draining all recorded packets ...
Draining remaining packets ...
Time taken is 4562 cycles
Class 0:
Packet latency average = 20.2418
	minimum = 7
	maximum = 52
Network latency average = 20.2418
	minimum = 7
	maximum = 52
Slowest packet = 31427
Flit latency average = 20.2418
	minimum = 7
	maximum = 52
Slowest flit = 31427
Fragmentation average = 0
	minimum = 0
	maximum = 0
Injected packet rate average = 0.011375
	minimum = 0.006 (at node 0)
	maximum = 0.018 (at node 6)
Accepted packet rate average = 0.011375
	minimum = 0.006 (at node 3)
	maximum = 0.024 (at node 9)
Injected flit rate average = 0.011375
	minimum = 0.006 (at node 0)
	maximum = 0.018 (at node 6)
Accepted flit rate average= 0.011375
	minimum = 0.006 (at node 3)
	maximum = 0.024 (at node 9)
Injected packet length average = 1
Accepted packet length average = 1
Total in-flight flits = 0 (0 measured)
latency change    = 1
throughput change = 1
Class 0:
Packet latency average = 20.7654
	minimum = 7
	maximum = 57
Network latency average = 20.7654
	minimum = 7
	maximum = 57
Slowest packet = 31528
Flit latency average = 20.7654
	minimum = 7
	maximum = 57
Slowest flit = 31528
Fragmentation average = 0
	minimum = 0
	maximum = 0
Injected packet rate average = 0.0105
	minimum = 0.005 (at node 2)
	maximum = 0.017 (at node 11)
Accepted packet rate average = 0.010125
	minimum = 0.006 (at node 3)
	maximum = 0.017 (at node 9)
Injected flit rate average = 0.0105
	minimum = 0.005 (at node 2)
	maximum = 0.017 (at node 11)
Accepted flit rate average= 0.010125
	minimum = 0.006 (at node 3)
	maximum = 0.017 (at node 9)
Injected packet length average = 1
Accepted packet length average = 1
Total in-flight flits = 6 (0 measured)
latency change    = 0.0252185
throughput change = 0.123457
Class 0:
Packet latency average = 19.9506
	minimum = 7
	maximum = 57
Network latency average = 19.9506
	minimum = 7
	maximum = 57
Slowest packet = 31558
Flit latency average = 19.9506
	minimum = 7
	maximum = 57
Slowest flit = 31558
Fragmentation average = 0
	minimum = 0
	maximum = 0
Injected packet rate average = 0.0095
	minimum = 0 (at node 9)
	maximum = 0.014 (at node 0)
Accepted packet rate average = 0.010125
	minimum = 0.004 (at node 6)
	maximum = 0.018 (at node 2)
Injected flit rate average = 0.0095
	minimum = 0 (at node 9)
	maximum = 0.014 (at node 0)
Accepted flit rate average= 0.010125
	minimum = 0.004 (at node 6)
	maximum = 0.018 (at node 2)
Injected packet length average = 1
Accepted packet length average = 1
Total in-flight flits = 1 (0 measured)
latency change    = 0.0408416
throughput change = 0
Warmed up ...Time used is 1500 cycles
Class 0:
Packet latency average = 21.8191
	minimum = 7
	maximum = 52
Network latency average = 21.8191
	minimum = 7
	maximum = 52
Slowest packet = 31699
Flit latency average = 21.8737
	minimum = 7
	maximum = 52
Slowest flit = 31699
Fragmentation average = 0
	minimum = 0
	maximum = 0
Injected packet rate average = 0.012375
	minimum = 0.004 (at node 8)
	maximum = 0.024 (at node 15)
Accepted packet rate average = 0.011875
	minimum = 0.006 (at node 1)
	maximum = 0.026 (at node 4)
Injected flit rate average = 0.012375
	minimum = 0.004 (at node 8)
	maximum = 0.024 (at node 15)
Accepted flit rate average= 0.011875
	minimum = 0.006 (at node 1)
	maximum = 0.026 (at node 4)
Injected packet length average = 1
Accepted packet length average = 1
Total in-flight flits = 5 (5 measured)
latency change    = 0.0856372
throughput change = 0.147368
Class 0:
Packet latency average = 21.2452
	minimum = 7
	maximum = 52
Network latency average = 21.2452
	minimum = 7
	maximum = 52
Slowest packet = 31699
Flit latency average = 21.2821
	minimum = 7
	maximum = 52
Slowest flit = 31699
Fragmentation average = 0
	minimum = 0
	maximum = 0
Injected packet rate average = 0.00975
	minimum = 0.003 (at node 9)
	maximum = 0.017 (at node 15)
Accepted packet rate average = 0.00975
	minimum = 0.005 (at node 6)
	maximum = 0.017 (at node 4)
Injected flit rate average = 0.00975
	minimum = 0.003 (at node 9)
	maximum = 0.017 (at node 15)
Accepted flit rate average= 0.00975
	minimum = 0.005 (at node 6)
	maximum = 0.017 (at node 4)
Injected packet length average = 1
Accepted packet length average = 1
Total in-flight flits = 1 (1 measured)
latency change    = 0.0270173
throughput change = 0.217949
Class 0:
Packet latency average = 20.0815
	minimum = 7
	maximum = 52
Network latency average = 20.0815
	minimum = 7
	maximum = 52
Slowest packet = 31699
Flit latency average = 20.1111
	minimum = 7
	maximum = 52
Slowest flit = 31699
Fragmentation average = 0
	minimum = 0
	maximum = 0
Injected packet rate average = 0.00975
	minimum = 0.00466667 (at node 10)
	maximum = 0.0153333 (at node 1)
Accepted packet rate average = 0.00975
	minimum = 0.006 (at node 14)
	maximum = 0.014 (at node 4)
Injected flit rate average = 0.00975
	minimum = 0.00466667 (at node 10)
	maximum = 0.0153333 (at node 1)
Accepted flit rate average= 0.00975
	minimum = 0.006 (at node 14)
	maximum = 0.014 (at node 4)
Injected packet length average = 1
Accepted packet length average = 1
Total in-flight flits = 1 (1 measured)
latency change    = 0.0579446
throughput change = 0
Class 0:
Packet latency average = 20.4698
	minimum = 7
	maximum = 52
Network latency average = 20.4698
	minimum = 7
	maximum = 52
Slowest packet = 31699
Flit latency average = 20.4905
	minimum = 7
	maximum = 52
Slowest flit = 31699
Fragmentation average = 0
	minimum = 0
	maximum = 0
Injected packet rate average = 0.009875
	minimum = 0.006 (at node 12)
	maximum = 0.014 (at node 1)
Accepted packet rate average = 0.009875
	minimum = 0.0065 (at node 14)
	maximum = 0.013 (at node 4)
Injected flit rate average = 0.009875
	minimum = 0.006 (at node 12)
	maximum = 0.014 (at node 1)
Accepted flit rate average= 0.009875
	minimum = 0.0065 (at node 14)
	maximum = 0.013 (at node 4)
Injected packet length average = 1
Accepted packet length average = 1
Total in-flight flits = 1 (1 measured)
latency change    = 0.0189692
throughput change = 0.0126582
Class 0:
Packet latency average = 20.7468
	minimum = 7
	maximum = 52
Network latency average = 20.7468
	minimum = 7
	maximum = 52
Slowest packet = 31699
Flit latency average = 20.7629
	minimum = 7
	maximum = 52
Slowest flit = 31699
Fragmentation average = 0
	minimum = 0
	maximum = 0
Injected packet rate average = 0.009725
	minimum = 0.0056 (at node 12)
	maximum = 0.0128 (at node 3)
Accepted packet rate average = 0.0097
	minimum = 0.0056 (at node 14)
	maximum = 0.0128 (at node 4)
Injected flit rate average = 0.009725
	minimum = 0.0056 (at node 12)
	maximum = 0.0128 (at node 3)
Accepted flit rate average= 0.0097
	minimum = 0.0056 (at node 14)
	maximum = 0.0128 (at node 4)
Injected packet length average = 1
Accepted packet length average = 1
Total in-flight flits = 2 (2 measured)
latency change    = 0.013348
throughput change = 0.0180412
Class 0:
Packet latency average = 20.9636
	minimum = 7
	maximum = 66
Network latency average = 20.9636
	minimum = 7
	maximum = 66
Slowest packet = 32061
Flit latency average = 20.9765
	minimum = 7
	maximum = 66
Slowest flit = 32061
Fragmentation average = 0
	minimum = 0
	maximum = 0
Injected packet rate average = 0.0098125
	minimum = 0.00666667 (at node 10)
	maximum = 0.0126667 (at node 1)
Accepted packet rate average = 0.00975
	minimum = 0.00566667 (at node 14)
	maximum = 0.012 (at node 10)
Injected flit rate average = 0.0098125
	minimum = 0.00666667 (at node 10)
	maximum = 0.0126667 (at node 1)
Accepted flit rate average= 0.00975
	minimum = 0.00566667 (at node 14)
	maximum = 0.012 (at node 10)
Injected packet length average = 1
Accepted packet length average = 1
Total in-flight flits = 4 (4 measured)
latency change    = 0.010343
throughput change = 0.00512821
Draining all recorded packets ...
Draining remaining packets ...
Time taken is 4527 cycles
====== Overall Traffic Statistics ======
====== Traffic class 0 ======
Packet latency average = 20.9287 (50 samples)
	minimum = 7 (50 samples)
	maximum = 56.96 (50 samples)
Network latency average = 20.9287 (50 samples)
	minimum = 7 (50 samples)
	maximum = 56.96 (50 samples)
Flit latency average = 20.9613 (50 samples)
	minimum = 7 (50 samples)
	maximum = 56.96 (50 samples)
Fragmentation average = 0 (50 samples)
	minimum = 0 (50 samples)
	maximum = 0 (50 samples)
Injected packet rate average = 0.00995436 (50 samples)
	minimum = 0.006426 (50 samples)
	maximum = 0.0134647 (50 samples)
Accepted packet rate average = 0.00994786 (50 samples)
	minimum = 0.00633533 (50 samples)
	maximum = 0.0137959 (50 samples)
Injected flit rate average = 0.00995436 (50 samples)
	minimum = 0.006426 (50 samples)
	maximum = 0.0134647 (50 samples)
Accepted flit rate average = 0.00994786 (50 samples)
	minimum = 0.00633533 (50 samples)
	maximum = 0.0137959 (50 samples)
Injected packet size average = 1 (50 samples)
Accepted packet size average = 1 (50 samples)
Hops average = 3.77236 (50 samples)
Total run time 3.55502
