BEGIN Configuration File: /tmp/tmpxsnjgd1l.cfg
topology = mesh;
k = 4;
n = 2;
routing_function = planar_adapt;
num_vcs = 4;
vc_buf_size = 4;
wait_for_tail_credit = 1;
vc_allocator = islip;
sw_allocator = islip;
alloc_iters = 1;
credit_delay = 2;
routing_delay = 1;
vc_alloc_delay = 1;
sw_alloc_delay = 1;
input_speedup = 2;
output_speedup = 1;
internal_speedup = 1.0;
traffic = uniform;
packet_size = 1;
sim_type = latency;
injection_rate = 0.01;
warmup_periods = 3;
sample_period = 500;
sim_count = 50;
seed = 2;
link_failures = 2;
fail_seed = 101;

END Configuration File: /tmp/tmpxsnjgd1l.cfg
failure at node 14, channel 0 (1/2)
failure at node 12, channel 0 (2/2)
Class 0:
Packet latency average = 18.1111
	minimum = 7
	maximum = 32
Network latency average = 18.1111
	minimum = 7
	maximum = 32
Slowest packet = 10
Flit latency average = 18.1111
	minimum = 7
	maximum = 32
Slowest flit = 10
Fragmentation average = 0
	minimum = 0
	maximum = 0
Injected packet rate average = 0.008125
	minimum = 0 (at node 9)
	maximum = 0.014 (at node 5)
Accepted packet rate average = 0.007875
	minimum = 0.002 (at node 5)
	maximum = 0.02 (at node 9)
Injected flit rate average = 0.008125
	minimum = 0 (at node 9)
	maximum = 0.014 (at node 5)
Accepted flit rate average= 0.007875
	minimum = 0.002 (at node 5)
	maximum = 0.02 (at node 9)
Injected packet length average = 1
Accepted packet length average = 1
Total in-flight flits = 2 (0 measured)
latency change    = 1
throughput change = 1
Class 0:
Packet latency average = 18.2652
	minimum = 7
	maximum = 32
Network latency average = 18.2652
	minimum = 7
	maximum = 32
Slowest packet = 10
Flit latency average = 18.2652
	minimum = 7
	maximum = 32
Slowest flit = 10
Fragmentation average = 0
	minimum = 0
	maximum = 0
Injected packet rate average = 0.008625
	minimum = 0.003 (at node 2)
	maximum = 0.015 (at node 13)
Accepted packet rate average = 0.00825
	minimum = 0.004 (at node 6)
	maximum = 0.015 (at node 9)
Injected flit rate average = 0.008625
	minimum = 0.003 (at node 2)
	maximum = 0.015 (at node 13)
Accepted flit rate average= 0.00825
	minimum = 0.004 (at node 6)
	maximum = 0.015 (at node 9)
Injected packet length average = 1
Accepted packet length average = 1
Total in-flight flits = 6 (0 measured)
latency change    = 0.00843357
throughput change = 0.0454545
Class 0:
Packet latency average = 19.6786
	minimum = 7
	maximum = 37
Network latency average = 19.6786
	minimum = 7
	maximum = 37
Slowest packet = 164
Flit latency average = 19.6786
	minimum = 7
	maximum = 37
Slowest flit = 164
Fragmentation average = 0
	minimum = 0
	maximum = 0
Injected packet rate average = 0.01
	minimum = 0.002 (at node 3)
	maximum = 0.022 (at node 13)
Accepted packet rate average = 0.0105
	minimum = 0.006 (at node 5)
	maximum = 0.016 (at node 15)
Injected flit rate average = 0.01
	minimum = 0.002 (at node 3)
	maximum = 0.022 (at node 13)
Accepted flit rate average= 0.0105
	minimum = 0.006 (at node 5)
	maximum = 0.016 (at node 15)
Injected packet length average = 1
Accepted packet length average = 1
Total in-flight flits = 2 (0 measured)
latency change    = 0.0718253
throughput change = 0.214286
Warmed up ...Time used is 1500 cycles
Class 0:
Packet latency average = 19.3372
	minimum = 7
	maximum = 32
Network latency average = 19.3372
	minimum = 7
	maximum = 32
Slowest packet = 223
Flit latency average = 19.5682
	minimum = 7
	maximum = 37
Slowest flit = 216
Fragmentation average = 0
	minimum = 0
	maximum = 0
Injected packet rate average = 0.01125
	minimum = 0.004 (at node 15)
	maximum = 0.022 (at node 10)
Accepted packet rate average = 0.011
	minimum = 0.004 (at node 3)
	maximum = 0.016 (at node 4)
Injected flit rate average = 0.01125
	minimum = 0.004 (at node 15)
	maximum = 0.022 (at node 10)
Accepted flit rate average= 0.011
	minimum = 0.004 (at node 3)
	maximum = 0.016 (at node 4)
Injected packet length average = 1
Accepted packet length average = 1
Total in-flight flits = 4 (4 measured)
latency change    = 0.0176531
throughput change = 0.0454545
Class 0:
Packet latency average = 19.4157
	minimum = 7
	maximum = 32
Network latency average = 19.4157
	minimum = 7
	maximum = 32
Slowest packet = 223
Flit latency average = 19.5357
	minimum = 7
	maximum = 37
Slowest flit = 216
Fragmentation average = 0
	minimum = 0
	maximum = 0
Injected packet rate average = 0.0105
	minimum = 0.006 (at node 2)
	maximum = 0.015 (at node 3)
Accepted packet rate average = 0.0105
	minimum = 0.004 (at node 12)
	maximum = 0.014 (at node 6)
Injected flit rate average = 0.0105
	minimum = 0.006 (at node 2)
	maximum = 0.015 (at node 3)
Accepted flit rate average= 0.0105
	minimum = 0.004 (at node 12)
	maximum = 0.014 (at node 6)
Injected packet length average = 1
Accepted packet length average = 1
Total in-flight flits = 2 (2 measured)
latency change    = 0.00404072
throughput change = 0.047619
Class 0:
Packet latency average = 19.6213
	minimum = 7
	maximum = 37
Network latency average = 19.6213
	minimum = 7
	maximum = 37
Slowest packet = 428
Flit latency average = 19.7046
	minimum = 7
	maximum = 37
Slowest flit = 216
Fragmentation average = 0
	minimum = 0
	maximum = 0
Injected packet rate average = 0.00983333
	minimum = 0.00666667 (at node 1)
	maximum = 0.0153333 (at node 3)
Accepted packet rate average = 0.009875
	minimum = 0.00466667 (at node 12)
	maximum = 0.0146667 (at node 1)
Injected flit rate average = 0.00983333
	minimum = 0.00666667 (at node 1)
	maximum = 0.0153333 (at node 3)
Accepted flit rate average= 0.009875
	minimum = 0.00466667 (at node 12)
	maximum = 0.0146667 (at node 1)
Injected packet length average = 1
Accepted packet length average = 1
Total in-flight flits = 1 (1 measured)
latency change    = 0.0104791
throughput change = 0.0632911
Class 0:
Packet latency average = 19.5542
	minimum = 7
	maximum = 37
Network latency average = 19.5542
	minimum = 7
	maximum = 37
Slowest packet = 428
Flit latency average = 19.6154
	minimum = 7
	maximum = 37
Slowest flit = 216
Fragmentation average = 0
	minimum = 0
	maximum = 0
Injected packet rate average = 0.0101875
	minimum = 0.0065 (at node 8)
	maximum = 0.014 (at node 10)
Accepted packet rate average = 0.0101563
	minimum = 0.005 (at node 12)
	maximum = 0.015 (at node 1)
Injected flit rate average = 0.0101875
	minimum = 0.0065 (at node 8)
	maximum = 0.014 (at node 10)
Accepted flit rate average= 0.0101563
	minimum = 0.005 (at node 12)
	maximum = 0.015 (at node 1)
Injected packet length average = 1
Accepted packet length average = 1
Total in-flight flits = 3 (3 measured)
latency change    = 0.00343134
throughput change = 0.0276923
Class 0:
Packet latency average = 19.5907
	minimum = 7
	maximum = 37
Network latency average = 19.5907
	minimum = 7
	maximum = 37
Slowest packet = 428
Flit latency average = 19.639
	minimum = 7
	maximum = 37
Slowest flit = 216
Fragmentation average = 0
	minimum = 0
	maximum = 0
Injected packet rate average = 0.010275
	minimum = 0.0076 (at node 1)
	maximum = 0.0136 (at node 12)
Accepted packet rate average = 0.01025
	minimum = 0.0056 (at node 12)
	maximum = 0.0148 (at node 1)
Injected flit rate average = 0.010275
	minimum = 0.0076 (at node 1)
	maximum = 0.0136 (at node 12)
Accepted flit rate average= 0.01025
	minimum = 0.0056 (at node 12)
	maximum = 0.0148 (at node 1)
Injected packet length average = 1
Accepted packet length average = 1
Total in-flight flits = 3 (3 measured)
latency change    = 0.00186347
throughput change = 0.00914634
Class 0:
Packet latency average = 19.6544
	minimum = 7
	maximum = 37
Network latency average = 19.6544
	minimum = 7
	maximum = 37
Slowest packet = 428
Flit latency average = 19.6945
	minimum = 7
	maximum = 37
Slowest flit = 216
Fragmentation average = 0
	minimum = 0
	maximum = 0
Injected packet rate average = 0.0103125
	minimum = 0.00766667 (at node 1)
	maximum = 0.0136667 (at node 10)
Accepted packet rate average = 0.0102292
	minimum = 0.00733333 (at node 2)
	maximum = 0.0136667 (at node 1)
Injected flit rate average = 0.0103125
	minimum = 0.00766667 (at node 1)
	maximum = 0.0136667 (at node 10)
Accepted flit rate average= 0.0102292
	minimum = 0.00733333 (at node 2)
	maximum = 0.0136667 (at node 1)
Injected packet length average = 1
Accepted packet length average = 1
Total in-flight flits = 6 (6 measured)
latency change    = 0.00324154
throughput change = 0.00203666
Draining all recorded packets ...
Draining remaining packets ...
Time taken is 4536 cycles
Class 0:
Packet latency average = 18.0448
	minimum = 7
	maximum = 37
Network latency average = 18.0448
	minimum = 7
	maximum = 37
Slowest packet = 770
Flit latency average = 18.0448
	minimum = 7
	maximum = 37
Slowest flit = 770
Fragmentation average = 0
	minimum = 0
	maximum = 0
Injected packet rate average = 0.00875
	minimum = 0.004 (at node 13)
	maximum = 0.026 (at node 5)
Accepted packet rate average = 0.008375
	minimum = 0.004 (at node 2)
	maximum = 0.014 (at node 13)
Injected flit rate average = 0.00875
	minimum = 0.004 (at node 13)
	maximum = 0.026 (at node 5)
Accepted flit rate average= 0.008375
	minimum = 0.004 (at node 2)
	maximum = 0.014 (at node 13)
Injected packet length average = 1
Accepted packet length average = 1
Total in-flight flits = 3 (0 measured)
latency change    = 1
throughput change = 1
Class 0:
Packet latency average = 19.2812
	minimum = 7
	maximum = 37
Network latency average = 19.2812
	minimum = 7
	maximum = 37
Slowest packet = 770
Flit latency average = 19.2812
	minimum = 7
	maximum = 37
Slowest flit = 770
Fragmentation average = 0
	minimum = 0
	maximum = 0
Injected packet rate average = 0.01
	minimum = 0.005 (at node 2)
	maximum = 0.018 (at node 5)
Accepted packet rate average = 0.01
	minimum = 0.005 (at node 6)
	maximum = 0.013 (at node 10)
Injected flit rate average = 0.01
	minimum = 0.005 (at node 2)
	maximum = 0.018 (at node 5)
Accepted flit rate average= 0.01
	minimum = 0.005 (at node 6)
	maximum = 0.013 (at node 10)
Injected packet length average = 1
Accepted packet length average = 1
Total in-flight flits = 0 (0 measured)
latency change    = 0.0641283
throughput change = 0.1625
Class 0:
Packet latency average = 20.2877
	minimum = 7
	maximum = 37
Network latency average = 20.2877
	minimum = 7
	maximum = 37
Slowest packet = 875
Flit latency average = 20.2877
	minimum = 7
	maximum = 37
Slowest flit = 875
Fragmentation average = 0
	minimum = 0
	maximum = 0
Injected packet rate average = 0.009625
	minimum = 0.004 (at node 1)
	maximum = 0.016 (at node 9)
Accepted packet rate average = 0.009125
	minimum = 0.002 (at node 11)
	maximum = 0.018 (at node 1)
Injected flit rate average = 0.009625
	minimum = 0.004 (at node 1)
	maximum = 0.016 (at node 9)
Accepted flit rate average= 0.009125
	minimum = 0.002 (at node 11)
	maximum = 0.018 (at node 1)
Injected packet length average = 1
Accepted packet length average = 1
Total in-flight flits = 4 (0 measured)
latency change    = 0.0496075
throughput change = 0.0958904
Warmed up ...Time used is 1500 cycles
Class 0:
Packet latency average = 20.3537
	minimum = 7
	maximum = 37
Network latency average = 20.3537
	minimum = 7
	maximum = 37
Slowest packet = 962
Flit latency average = 20.314
	minimum = 7
	maximum = 37
Slowest flit = 962
Fragmentation average = 0
	minimum = 0
	maximum = 0
Injected packet rate average = 0.01075
	minimum = 0.004 (at node 6)
	maximum = 0.016 (at node 5)
Accepted packet rate average = 0.01075
	minimum = 0.004 (at node 9)
	maximum = 0.018 (at node 0)
Injected flit rate average = 0.01075
	minimum = 0.004 (at node 6)
	maximum = 0.016 (at node 5)
Accepted flit rate average= 0.01075
	minimum = 0.004 (at node 9)
	maximum = 0.018 (at node 0)
Injected packet length average = 1
Accepted packet length average = 1
Total in-flight flits = 4 (4 measured)
latency change    = 0.00324204
throughput change = 0.151163
Class 0:
Packet latency average = 20.2749
	minimum = 7
	maximum = 37
Network latency average = 20.2749
	minimum = 7
	maximum = 37
Slowest packet = 962
Flit latency average = 20.2571
	minimum = 7
	maximum = 37
Slowest flit = 962
Fragmentation average = 0
	minimum = 0
	maximum = 0
Injected packet rate average = 0.011
	minimum = 0.007 (at node 6)
	maximum = 0.015 (at node 5)
Accepted packet rate average = 0.0109375
	minimum = 0.004 (at node 11)
	maximum = 0.018 (at node 0)
Injected flit rate average = 0.011
	minimum = 0.007 (at node 6)
	maximum = 0.015 (at node 5)
Accepted flit rate average= 0.0109375
	minimum = 0.004 (at node 11)
	maximum = 0.018 (at node 0)
Injected packet length average = 1
Accepted packet length average = 1
Total in-flight flits = 5 (5 measured)
latency change    = 0.00388682
throughput change = 0.0171429
Class 0:
Packet latency average = 20.3413
	minimum = 7
	maximum = 37
Network latency average = 20.3413
	minimum = 7
	maximum = 37
Slowest packet = 962
Flit latency average = 20.3281
	minimum = 7
	maximum = 37
Slowest flit = 962
Fragmentation average = 0
	minimum = 0
	maximum = 0
Injected packet rate average = 0.0107083
	minimum = 0.00866667 (at node 0)
	maximum = 0.0153333 (at node 5)
Accepted packet rate average = 0.0106667
	minimum = 0.006 (at node 11)
	maximum = 0.016 (at node 8)
Injected flit rate average = 0.0107083
	minimum = 0.00866667 (at node 0)
	maximum = 0.0153333 (at node 5)
Accepted flit rate average= 0.0106667
	minimum = 0.006 (at node 11)
	maximum = 0.016 (at node 8)
Injected packet length average = 1
Accepted packet length average = 1
Total in-flight flits = 5 (5 measured)
latency change    = 0.00326509
throughput change = 0.0253906
Class 0:
Packet latency average = 20.3647
	minimum = 7
	maximum = 37
Network latency average = 20.3647
	minimum = 7
	maximum = 37
Slowest packet = 962
Flit latency average = 20.3544
	minimum = 7
	maximum = 37
Slowest flit = 962
Fragmentation average = 0
	minimum = 0
	maximum = 0
Injected packet rate average = 0.0104375
	minimum = 0.008 (at node 6)
	maximum = 0.015 (at node 3)
Accepted packet rate average = 0.0104063
	minimum = 0.006 (at node 11)
	maximum = 0.0155 (at node 0)
Injected flit rate average = 0.0104375
	minimum = 0.008 (at node 6)
	maximum = 0.015 (at node 3)
Accepted flit rate average= 0.0104063
	minimum = 0.006 (at node 11)
	maximum = 0.0155 (at node 0)
Injected packet length average = 1
Accepted packet length average = 1
Total in-flight flits = 5 (5 measured)
latency change    = 0.00115257
throughput change = 0.025025
Draining all recorded packets ...
Draining remaining packets ...
Time taken is 3532 cycles
Class 0:
Packet latency average = 19.8667
	minimum = 7
	maximum = 37
Network latency average = 19.8667
	minimum = 7
	maximum = 37
Slowest packet = 1330
Flit latency average = 19.8667
	minimum = 7
	maximum = 37
Slowest flit = 1330
Fragmentation average = 0
	minimum = 0
	maximum = 0
Injected packet rate average = 0.00975
	minimum = 0.002 (at node 11)
	maximum = 0.014 (at node 1)
Accepted packet rate average = 0.009375
	minimum = 0.002 (at node 0)
	maximum = 0.016 (at node 5)
Injected flit rate average = 0.00975
	minimum = 0.002 (at node 11)
	maximum = 0.014 (at node 1)
Accepted flit rate average= 0.009375
	minimum = 0.002 (at node 0)
	maximum = 0.016 (at node 5)
Injected packet length average = 1
Accepted packet length average = 1
Total in-flight flits = 3 (0 measured)
latency change    = 1
throughput change = 1
Class 0:
Packet latency average = 19.6098
	minimum = 7
	maximum = 37
Network latency average = 19.6098
	minimum = 7
	maximum = 37
Slowest packet = 1330
Flit latency average = 19.6098
	minimum = 7
	maximum = 37
Slowest flit = 1330
Fragmentation average = 0
	minimum = 0
	maximum = 0
Injected packet rate average = 0.0105625
	minimum = 0.006 (at node 5)
	maximum = 0.015 (at node 15)
Accepted packet rate average = 0.01025
	minimum = 0.003 (at node 0)
	maximum = 0.015 (at node 5)
Injected flit rate average = 0.0105625
	minimum = 0.006 (at node 5)
	maximum = 0.015 (at node 15)
Accepted flit rate average= 0.01025
	minimum = 0.003 (at node 0)
	maximum = 0.015 (at node 5)
Injected packet length average = 1
Accepted packet length average = 1
Total in-flight flits = 5 (0 measured)
latency change    = 0.0131012
throughput change = 0.0853659
Class 0:
Packet latency average = 19.3404
	minimum = 7
	maximum = 37
Network latency average = 19.3404
	minimum = 7
	maximum = 37
Slowest packet = 1447
Flit latency average = 19.3404
	minimum = 7
	maximum = 37
Slowest flit = 1447
Fragmentation average = 0
	minimum = 0
	maximum = 0
Injected packet rate average = 0.0115
	minimum = 0 (at node 7)
	maximum = 0.022 (at node 0)
Accepted packet rate average = 0.01175
	minimum = 0.002 (at node 4)
	maximum = 0.018 (at node 3)
Injected flit rate average = 0.0115
	minimum = 0 (at node 7)
	maximum = 0.022 (at node 0)
Accepted flit rate average= 0.01175
	minimum = 0.002 (at node 4)
	maximum = 0.018 (at node 3)
Injected packet length average = 1
Accepted packet length average = 1
Total in-flight flits = 3 (0 measured)
latency change    = 0.0139258
throughput change = 0.12766
Warmed up ...Time used is 1500 cycles
Class 0:
Packet latency average = 20.2766
	minimum = 7
	maximum = 37
Network latency average = 20.2766
	minimum = 7
	maximum = 37
Slowest packet = 1572
Flit latency average = 20.3299
	minimum = 7
	maximum = 37
Slowest flit = 1572
Fragmentation average = 0
	minimum = 0
	maximum = 0
Injected packet rate average = 0.01175
	minimum = 0.004 (at node 1)
	maximum = 0.022 (at node 0)
Accepted packet rate average = 0.012125
	minimum = 0.006 (at node 7)
	maximum = 0.026 (at node 6)
Injected flit rate average = 0.01175
	minimum = 0.004 (at node 1)
	maximum = 0.022 (at node 0)
Accepted flit rate average= 0.012125
	minimum = 0.006 (at node 7)
	maximum = 0.026 (at node 6)
Injected packet length average = 1
Accepted packet length average = 1
Total in-flight flits = 0 (0 measured)
latency change    = 0.04617
throughput change = 0.0309278
Class 0:
Packet latency average = 19.7919
	minimum = 7
	maximum = 37
Network latency average = 19.7919
	minimum = 7
	maximum = 37
Slowest packet = 1572
Flit latency average = 19.8295
	minimum = 7
	maximum = 37
Slowest flit = 1572
Fragmentation average = 0
	minimum = 0
	maximum = 0
Injected packet rate average = 0.0110625
	minimum = 0.005 (at node 3)
	maximum = 0.019 (at node 14)
Accepted packet rate average = 0.011
	minimum = 0.007 (at node 13)
	maximum = 0.016 (at node 6)
Injected flit rate average = 0.0110625
	minimum = 0.005 (at node 3)
	maximum = 0.019 (at node 14)
Accepted flit rate average= 0.011
	minimum = 0.007 (at node 13)
	maximum = 0.016 (at node 6)
Injected packet length average = 1
Accepted packet length average = 1
Total in-flight flits = 4 (4 measured)
latency change    = 0.0244892
throughput change = 0.102273
Class 0:
Packet latency average = 19.8321
	minimum = 7
	maximum = 37
Network latency average = 19.8321
	minimum = 7
	maximum = 37
Slowest packet = 1572
Flit latency average = 19.8561
	minimum = 7
	maximum = 37
Slowest flit = 1572
Fragmentation average = 0
	minimum = 0
	maximum = 0
Injected packet rate average = 0.0112917
	minimum = 0.00466667 (at node 1)
	maximum = 0.018 (at node 6)
Accepted packet rate average = 0.0112917
	minimum = 0.008 (at node 13)
	maximum = 0.0153333 (at node 2)
Injected flit rate average = 0.0112917
	minimum = 0.00466667 (at node 1)
	maximum = 0.018 (at node 6)
Accepted flit rate average= 0.0112917
	minimum = 0.008 (at node 13)
	maximum = 0.0153333 (at node 2)
Injected packet length average = 1
Accepted packet length average = 1
Total in-flight flits = 3 (3 measured)
latency change    = 0.00202611
throughput change = 0.0258303
Class 0:
Packet latency average = 19.9552
	minimum = 7
	maximum = 37
Network latency average = 19.9552
	minimum = 7
	maximum = 37
Slowest packet = 1572
Flit latency average = 19.9722
	minimum = 7
	maximum = 37
Slowest flit = 1572
Fragmentation average = 0
	minimum = 0
	maximum = 0
Injected packet rate average = 0.0112812
	minimum = 0.0065 (at node 9)
	maximum = 0.0155 (at node 6)
Accepted packet rate average = 0.01125
	minimum = 0.009 (at node 12)
	maximum = 0.0135 (at node 6)
Injected flit rate average = 0.0112812
	minimum = 0.0065 (at node 9)
	maximum = 0.0155 (at node 6)
Accepted flit rate average= 0.01125
	minimum = 0.009 (at node 12)
	maximum = 0.0135 (at node 6)
Injected packet length average = 1
Accepted packet length average = 1
Total in-flight flits = 4 (4 measured)
latency change    = 0.00616845
throughput change = 0.0037037
Class 0:
Packet latency average = 19.839
	minimum = 7
	maximum = 37
Network latency average = 19.839
	minimum = 7
	maximum = 37
Slowest packet = 1572
Flit latency average = 19.8536
	minimum = 7
	maximum = 37
Slowest flit = 1572
Fragmentation average = 0
	minimum = 0
	maximum = 0
Injected packet rate average = 0.011075
	minimum = 0.0056 (at node 9)
	maximum = 0.0144 (at node 6)
Accepted packet rate average = 0.0111
	minimum = 0.0088 (at node 9)
	maximum = 0.0144 (at node 8)
Injected flit rate average = 0.011075
	minimum = 0.0056 (at node 9)
	maximum = 0.0144 (at node 6)
Accepted flit rate average= 0.0111
	minimum = 0.0088 (at node 9)
	maximum = 0.0144 (at node 8)
Injected packet length average = 1
Accepted packet length average = 1
Total in-flight flits = 2 (2 measured)
latency change    = 0.00585613
throughput change = 0.0135135
Draining all recorded packets ...
Draining remaining packets ...
Time taken is 4030 cycles
Class 0:
Packet latency average = 20.2113
	minimum = 7
	maximum = 37
Network latency average = 20.2113
	minimum = 7
	maximum = 37
Slowest packet = 2036
Flit latency average = 20.2113
	minimum = 7
	maximum = 37
Slowest flit = 2036
Fragmentation average = 0
	minimum = 0
	maximum = 0
Injected packet rate average = 0.00925
	minimum = 0.002 (at node 10)
	maximum = 0.014 (at node 6)
Accepted packet rate average = 0.008875
	minimum = 0.004 (at node 5)
	maximum = 0.016 (at node 4)
Injected flit rate average = 0.00925
	minimum = 0.002 (at node 10)
	maximum = 0.014 (at node 6)
Accepted flit rate average= 0.008875
	minimum = 0.004 (at node 5)
	maximum = 0.016 (at node 4)
Injected packet length average = 1
Accepted packet length average = 1
Total in-flight flits = 3 (0 measured)
latency change    = 1
throughput change = 1
Class 0:
Packet latency average = 20.2517
	minimum = 7
	maximum = 40
Network latency average = 20.2517
	minimum = 7
	maximum = 40
Slowest packet = 2072
Flit latency average = 20.2517
	minimum = 7
	maximum = 40
Slowest flit = 2072
Fragmentation average = 0
	minimum = 0
	maximum = 0
Injected packet rate average = 0.0091875
	minimum = 0.003 (at node 10)
	maximum = 0.014 (at node 0)
Accepted packet rate average = 0.0089375
	minimum = 0.003 (at node 5)
	maximum = 0.016 (at node 9)
Injected flit rate average = 0.0091875
	minimum = 0.003 (at node 10)
	maximum = 0.014 (at node 0)
Accepted flit rate average= 0.0089375
	minimum = 0.003 (at node 5)
	maximum = 0.016 (at node 9)
Injected packet length average = 1
Accepted packet length average = 1
Total in-flight flits = 4 (0 measured)
latency change    = 0.00199887
throughput change = 0.00699301
Class 0:
Packet latency average = 19.7444
	minimum = 7
	maximum = 37
Network latency average = 19.7444
	minimum = 7
	maximum = 37
Slowest packet = 2141
Flit latency average = 19.7444
	minimum = 7
	maximum = 37
Slowest flit = 2141
Fragmentation average = 0
	minimum = 0
	maximum = 0
Injected packet rate average = 0.011375
	minimum = 0.004 (at node 6)
	maximum = 0.022 (at node 14)
Accepted packet rate average = 0.01125
	minimum = 0.002 (at node 9)
	maximum = 0.02 (at node 5)
Injected flit rate average = 0.011375
	minimum = 0.004 (at node 6)
	maximum = 0.022 (at node 14)
Accepted flit rate average= 0.01125
	minimum = 0.002 (at node 9)
	maximum = 0.02 (at node 5)
Injected packet length average = 1
Accepted packet length average = 1
Total in-flight flits = 5 (0 measured)
latency change    = 0.0256935
throughput change = 0.205556
Warmed up ...Time used is 1500 cycles
Class 0:
Packet latency average = 19.16
	minimum = 7
	maximum = 33
Network latency average = 19.16
	minimum = 7
	maximum = 33
Slowest packet = 2241
Flit latency average = 19.15
	minimum = 7
	maximum = 33
Slowest flit = 2241
Fragmentation average = 0
	minimum = 0
	maximum = 0
Injected packet rate average = 0.0095
	minimum = 0.004 (at node 8)
	maximum = 0.016 (at node 4)
Accepted packet rate average = 0.01
	minimum = 0.004 (at node 10)
	maximum = 0.016 (at node 15)
Injected flit rate average = 0.0095
	minimum = 0.004 (at node 8)
	maximum = 0.016 (at node 4)
Accepted flit rate average= 0.01
	minimum = 0.004 (at node 10)
	maximum = 0.016 (at node 15)
Injected packet length average = 1
Accepted packet length average = 1
Total in-flight flits = 1 (1 measured)
latency change    = 0.0305034
throughput change = 0.125
Class 0:
Packet latency average = 18.8675
	minimum = 7
	maximum = 37
Network latency average = 18.8675
	minimum = 7
	maximum = 37
Slowest packet = 2361
Flit latency average = 18.8718
	minimum = 7
	maximum = 37
Slowest flit = 2361
Fragmentation average = 0
	minimum = 0
	maximum = 0
Injected packet rate average = 0.009625
	minimum = 0.005 (at node 3)
	maximum = 0.015 (at node 5)
Accepted packet rate average = 0.00975
	minimum = 0.004 (at node 9)
	maximum = 0.016 (at node 11)
Injected flit rate average = 0.009625
	minimum = 0.005 (at node 3)
	maximum = 0.015 (at node 5)
Accepted flit rate average= 0.00975
	minimum = 0.004 (at node 9)
	maximum = 0.016 (at node 11)
Injected packet length average = 1
Accepted packet length average = 1
Total in-flight flits = 3 (3 measured)
latency change    = 0.0155002
throughput change = 0.025641
Class 0:
Packet latency average = 19.1842
	minimum = 7
	maximum = 37
Network latency average = 19.1842
	minimum = 7
	maximum = 37
Slowest packet = 2361
Flit latency average = 19.1803
	minimum = 7
	maximum = 37
Slowest flit = 2361
Fragmentation average = 0
	minimum = 0
	maximum = 0
Injected packet rate average = 0.00966667
	minimum = 0.006 (at node 3)
	maximum = 0.0126667 (at node 5)
Accepted packet rate average = 0.00970833
	minimum = 0.006 (at node 9)
	maximum = 0.014 (at node 11)
Injected flit rate average = 0.00966667
	minimum = 0.006 (at node 3)
	maximum = 0.0126667 (at node 5)
Accepted flit rate average= 0.00970833
	minimum = 0.006 (at node 9)
	maximum = 0.014 (at node 11)
Injected packet length average = 1
Accepted packet length average = 1
Total in-flight flits = 4 (4 measured)
latency change    = 0.0165063
throughput change = 0.00429185
Class 0:
Packet latency average = 19.4062
	minimum = 7
	maximum = 37
Network latency average = 19.4062
	minimum = 7
	maximum = 37
Slowest packet = 2361
Flit latency average = 19.4
	minimum = 7
	maximum = 37
Slowest flit = 2361
Fragmentation average = 0
	minimum = 0
	maximum = 0
Injected packet rate average = 0.0101563
	minimum = 0.0065 (at node 3)
	maximum = 0.012 (at node 1)
Accepted packet rate average = 0.0101563
	minimum = 0.0065 (at node 9)
	maximum = 0.016 (at node 11)
Injected flit rate average = 0.0101563
	minimum = 0.0065 (at node 3)
	maximum = 0.012 (at node 1)
Accepted flit rate average= 0.0101563
	minimum = 0.0065 (at node 9)
	maximum = 0.016 (at node 11)
Injected packet length average = 1
Accepted packet length average = 1
Total in-flight flits = 5 (5 measured)
latency change    = 0.0114416
throughput change = 0.0441026
Draining all recorded packets ...
Draining remaining packets ...
Time taken is 3551 cycles
Class 0:
Packet latency average = 21.3214
	minimum = 12
	maximum = 37
Network latency average = 21.3214
	minimum = 12
	maximum = 37
Slowest packet = 2565
Flit latency average = 21.3214
	minimum = 12
	maximum = 37
Slowest flit = 2565
Fragmentation average = 0
	minimum = 0
	maximum = 0
Injected packet rate average = 0.010625
	minimum = 0.004 (at node 4)
	maximum = 0.018 (at node 11)
Accepted packet rate average = 0.0105
	minimum = 0.002 (at node 9)
	maximum = 0.018 (at node 8)
Injected flit rate average = 0.010625
	minimum = 0.004 (at node 4)
	maximum = 0.018 (at node 11)
Accepted flit rate average= 0.0105
	minimum = 0.002 (at node 9)
	maximum = 0.018 (at node 8)
Injected packet length average = 1
Accepted packet length average = 1
Total in-flight flits = 1 (0 measured)
latency change    = 1
throughput change = 1
Class 0:
Packet latency average = 20.681
	minimum = 7
	maximum = 37
Network latency average = 20.681
	minimum = 7
	maximum = 37
Slowest packet = 2565
Flit latency average = 20.681
	minimum = 7
	maximum = 37
Slowest flit = 2565
Fragmentation average = 0
	minimum = 0
	maximum = 0
Injected packet rate average = 0.0104375
	minimum = 0.005 (at node 7)
	maximum = 0.016 (at node 3)
Accepted packet rate average = 0.0101875
	minimum = 0.006 (at node 2)
	maximum = 0.022 (at node 10)
Injected flit rate average = 0.0104375
	minimum = 0.005 (at node 7)
	maximum = 0.016 (at node 3)
Accepted flit rate average= 0.0101875
	minimum = 0.006 (at node 2)
	maximum = 0.022 (at node 10)
Injected packet length average = 1
Accepted packet length average = 1
Total in-flight flits = 4 (0 measured)
latency change    = 0.0309679
throughput change = 0.0306748
Class 0:
Packet latency average = 22.0769
	minimum = 7
	maximum = 37
Network latency average = 22.0769
	minimum = 7
	maximum = 37
Slowest packet = 2725
Flit latency average = 22.0769
	minimum = 7
	maximum = 37
Slowest flit = 2725
Fragmentation average = 0
	minimum = 0
	maximum = 0
Injected packet rate average = 0.0085
	minimum = 0 (at node 7)
	maximum = 0.016 (at node 0)
Accepted packet rate average = 0.008125
	minimum = 0.004 (at node 1)
	maximum = 0.016 (at node 3)
Injected flit rate average = 0.0085
	minimum = 0 (at node 7)
	maximum = 0.016 (at node 0)
Accepted flit rate average= 0.008125
	minimum = 0.004 (at node 1)
	maximum = 0.016 (at node 3)
Injected packet length average = 1
Accepted packet length average = 1
Total in-flight flits = 7 (0 measured)
latency change    = 0.0632308
throughput change = 0.253846
Warmed up ...Time used is 1500 cycles
Class 0:
Packet latency average = 18.9242
	minimum = 7
	maximum = 37
Network latency average = 18.9242
	minimum = 7
	maximum = 37
Slowest packet = 2802
Flit latency average = 19.2192
	minimum = 7
	maximum = 37
Slowest flit = 2802
Fragmentation average = 0
	minimum = 0
	maximum = 0
Injected packet rate average = 0.00875
	minimum = 0.002 (at node 8)
	maximum = 0.018 (at node 6)
Accepted packet rate average = 0.009125
	minimum = 0.004 (at node 10)
	maximum = 0.016 (at node 6)
Injected flit rate average = 0.00875
	minimum = 0.002 (at node 8)
	maximum = 0.018 (at node 6)
Accepted flit rate average= 0.009125
	minimum = 0.004 (at node 10)
	maximum = 0.016 (at node 6)
Injected packet length average = 1
Accepted packet length average = 1
Total in-flight flits = 4 (4 measured)
latency change    = 0.166595
throughput change = 0.109589
Class 0:
Packet latency average = 19.7708
	minimum = 7
	maximum = 37
Network latency average = 19.7708
	minimum = 7
	maximum = 37
Slowest packet = 2802
Flit latency average = 19.8742
	minimum = 7
	maximum = 37
Slowest flit = 2802
Fragmentation average = 0
	minimum = 0
	maximum = 0
Injected packet rate average = 0.00925
	minimum = 0.004 (at node 3)
	maximum = 0.013 (at node 4)
Accepted packet rate average = 0.0094375
	minimum = 0.005 (at node 10)
	maximum = 0.014 (at node 0)
Injected flit rate average = 0.00925
	minimum = 0.004 (at node 3)
	maximum = 0.013 (at node 4)
Accepted flit rate average= 0.0094375
	minimum = 0.005 (at node 10)
	maximum = 0.014 (at node 0)
Injected packet length average = 1
Accepted packet length average = 1
Total in-flight flits = 4 (4 measured)
latency change    = 0.0428202
throughput change = 0.0331126
Class 0:
Packet latency average = 19.7441
	minimum = 7
	maximum = 37
Network latency average = 19.7441
	minimum = 7
	maximum = 37
Slowest packet = 2802
Flit latency average = 19.8165
	minimum = 7
	maximum = 37
Slowest flit = 2802
Fragmentation average = 0
	minimum = 0
	maximum = 0
Injected packet rate average = 0.00891667
	minimum = 0.006 (at node 3)
	maximum = 0.012 (at node 2)
Accepted packet rate average = 0.00908333
	minimum = 0.00466667 (at node 9)
	maximum = 0.012 (at node 2)
Injected flit rate average = 0.00891667
	minimum = 0.006 (at node 3)
	maximum = 0.012 (at node 2)
Accepted flit rate average= 0.00908333
	minimum = 0.00466667 (at node 9)
	maximum = 0.012 (at node 2)
Injected packet length average = 1
Accepted packet length average = 1
Total in-flight flits = 3 (3 measured)
latency change    = 0.00135522
throughput change = 0.0389908
Class 0:
Packet latency average = 19.8949
	minimum = 7
	maximum = 37
Network latency average = 19.8949
	minimum = 7
	maximum = 37
Slowest packet = 2802
Flit latency average = 19.947
	minimum = 7
	maximum = 37
Slowest flit = 2802
Fragmentation average = 0
	minimum = 0
	maximum = 0
Injected packet rate average = 0.00875
	minimum = 0.006 (at node 3)
	maximum = 0.0115 (at node 2)
Accepted packet rate average = 0.00884375
	minimum = 0.005 (at node 10)
	maximum = 0.0115 (at node 2)
Injected flit rate average = 0.00875
	minimum = 0.006 (at node 3)
	maximum = 0.0115 (at node 2)
Accepted flit rate average= 0.00884375
	minimum = 0.005 (at node 10)
	maximum = 0.0115 (at node 2)
Injected packet length average = 1
Accepted packet length average = 1
Total in-flight flits = 4 (4 measured)
latency change    = 0.00758242
throughput change = 0.0270907
Draining all recorded packets ...
Draining remaining packets ...
Time taken is 3548 cycles
Class 0:
Packet latency average = 22.3797
	minimum = 12
	maximum = 37
Network latency average = 22.3797
	minimum = 12
	maximum = 37
Slowest packet = 3082
Flit latency average = 22.3797
	minimum = 12
	maximum = 37
Slowest flit = 3082
Fragmentation average = 0
	minimum = 0
	maximum = 0
Injected packet rate average = 0.0105
	minimum = 0 (at node 4)
	maximum = 0.024 (at node 12)
Accepted packet rate average = 0.009875
	minimum = 0.004 (at node 2)
	maximum = 0.02 (at node 0)
Injected flit rate average = 0.0105
	minimum = 0 (at node 4)
	maximum = 0.024 (at node 12)
Accepted flit rate average= 0.009875
	minimum = 0.004 (at node 2)
	maximum = 0.02 (at node 0)
Injected packet length average = 1
Accepted packet length average = 1
Total in-flight flits = 5 (0 measured)
latency change    = 1
throughput change = 1
Class 0:
Packet latency average = 20.9873
	minimum = 7
	maximum = 37
Network latency average = 20.9873
	minimum = 7
	maximum = 37
Slowest packet = 3082
Flit latency average = 20.9873
	minimum = 7
	maximum = 37
Slowest flit = 3082
Fragmentation average = 0
	minimum = 0
	maximum = 0
Injected packet rate average = 0.0100625
	minimum = 0.005 (at node 4)
	maximum = 0.019 (at node 12)
Accepted packet rate average = 0.0098125
	minimum = 0.006 (at node 2)
	maximum = 0.017 (at node 1)
Injected flit rate average = 0.0100625
	minimum = 0.005 (at node 4)
	maximum = 0.019 (at node 12)
Accepted flit rate average= 0.0098125
	minimum = 0.006 (at node 2)
	maximum = 0.017 (at node 1)
Injected packet length average = 1
Accepted packet length average = 1
Total in-flight flits = 4 (0 measured)
latency change    = 0.0663491
throughput change = 0.00636943
Class 0:
Packet latency average = 20.3061
	minimum = 7
	maximum = 37
Network latency average = 20.3061
	minimum = 7
	maximum = 37
Slowest packet = 3275
Flit latency average = 20.3061
	minimum = 7
	maximum = 37
Slowest flit = 3275
Fragmentation average = 0
	minimum = 0
	maximum = 0
Injected packet rate average = 0.012
	minimum = 0.006 (at node 9)
	maximum = 0.024 (at node 15)
Accepted packet rate average = 0.01225
	minimum = 0.008 (at node 1)
	maximum = 0.02 (at node 2)
Injected flit rate average = 0.012
	minimum = 0.006 (at node 9)
	maximum = 0.024 (at node 15)
Accepted flit rate average= 0.01225
	minimum = 0.008 (at node 1)
	maximum = 0.02 (at node 2)
Injected packet length average = 1
Accepted packet length average = 1
Total in-flight flits = 2 (0 measured)
latency change    = 0.0335435
throughput change = 0.19898
Warmed up ...Time used is 1500 cycles
Class 0:
Packet latency average = 19.2317
	minimum = 7
	maximum = 32
Network latency average = 19.2317
	minimum = 7
	maximum = 32
Slowest packet = 3354
Flit latency average = 19.2381
	minimum = 7
	maximum = 32
Slowest flit = 3354
Fragmentation average = 0
	minimum = 0
	maximum = 0
Injected packet rate average = 0.010625
	minimum = 0.004 (at node 2)
	maximum = 0.022 (at node 3)
Accepted packet rate average = 0.0105
	minimum = 0 (at node 12)
	maximum = 0.022 (at node 2)
Injected flit rate average = 0.010625
	minimum = 0.004 (at node 2)
	maximum = 0.022 (at node 3)
Accepted flit rate average= 0.0105
	minimum = 0 (at node 12)
	maximum = 0.022 (at node 2)
Injected packet length average = 1
Accepted packet length average = 1
Total in-flight flits = 3 (3 measured)
latency change    = 0.0558669
throughput change = 0.166667
Class 0:
Packet latency average = 19.061
	minimum = 7
	maximum = 37
Network latency average = 19.061
	minimum = 7
	maximum = 37
Slowest packet = 3426
Flit latency average = 19.0663
	minimum = 7
	maximum = 37
Slowest flit = 3426
Fragmentation average = 0
	minimum = 0
	maximum = 0
Injected packet rate average = 0.010375
	minimum = 0.006 (at node 9)
	maximum = 0.017 (at node 11)
Accepted packet rate average = 0.010375
	minimum = 0.005 (at node 12)
	maximum = 0.017 (at node 2)
Injected flit rate average = 0.010375
	minimum = 0.006 (at node 9)
	maximum = 0.017 (at node 11)
Accepted flit rate average= 0.010375
	minimum = 0.005 (at node 12)
	maximum = 0.017 (at node 2)
Injected packet length average = 1
Accepted packet length average = 1
Total in-flight flits = 2 (2 measured)
latency change    = 0.00895713
throughput change = 0.0120482
Class 0:
Packet latency average = 18.9672
	minimum = 7
	maximum = 37
Network latency average = 18.9672
	minimum = 7
	maximum = 37
Slowest packet = 3426
Flit latency average = 18.9715
	minimum = 7
	maximum = 37
Slowest flit = 3426
Fragmentation average = 0
	minimum = 0
	maximum = 0
Injected packet rate average = 0.0102917
	minimum = 0.00666667 (at node 2)
	maximum = 0.014 (at node 11)
Accepted packet rate average = 0.01025
	minimum = 0.00666667 (at node 9)
	maximum = 0.0146667 (at node 5)
Injected flit rate average = 0.0102917
	minimum = 0.00666667 (at node 2)
	maximum = 0.014 (at node 11)
Accepted flit rate average= 0.01025
	minimum = 0.00666667 (at node 9)
	maximum = 0.0146667 (at node 5)
Injected packet length average = 1
Accepted packet length average = 1
Total in-flight flits = 3 (3 measured)
latency change    = 0.0049434
throughput change = 0.0121951
Class 0:
Packet latency average = 18.969
	minimum = 7
	maximum = 37
Network latency average = 18.969
	minimum = 7
	maximum = 37
Slowest packet = 3426
Flit latency average = 18.9723
	minimum = 7
	maximum = 37
Slowest flit = 3426
Fragmentation average = 0
	minimum = 0
	maximum = 0
Injected packet rate average = 0.01025
	minimum = 0.0055 (at node 10)
	maximum = 0.0145 (at node 11)
Accepted packet rate average = 0.0101563
	minimum = 0.006 (at node 12)
	maximum = 0.0145 (at node 2)
Injected flit rate average = 0.01025
	minimum = 0.0055 (at node 10)
	maximum = 0.0145 (at node 11)
Accepted flit rate average= 0.0101563
	minimum = 0.006 (at node 12)
	maximum = 0.0145 (at node 2)
Injected packet length average = 1
Accepted packet length average = 1
Total in-flight flits = 5 (5 measured)
latency change    = 9.63218e-05
throughput change = 0.00923077
Draining all recorded packets ...
Draining remaining packets ...
Time taken is 3543 cycles
Class 0:
Packet latency average = 19.7683
	minimum = 7
	maximum = 39
Network latency average = 19.7683
	minimum = 7
	maximum = 39
Slowest packet = 3675
Flit latency average = 19.7683
	minimum = 7
	maximum = 39
Slowest flit = 3675
Fragmentation average = 0
	minimum = 0
	maximum = 0
Injected packet rate average = 0.01025
	minimum = 0.004 (at node 1)
	maximum = 0.016 (at node 12)
Accepted packet rate average = 0.01025
	minimum = 0.006 (at node 10)
	maximum = 0.018 (at node 0)
Injected flit rate average = 0.01025
	minimum = 0.004 (at node 1)
	maximum = 0.016 (at node 12)
Accepted flit rate average= 0.01025
	minimum = 0.006 (at node 10)
	maximum = 0.018 (at node 0)
Injected packet length average = 1
Accepted packet length average = 1
Total in-flight flits = 0 (0 measured)
latency change    = 1
throughput change = 1
Class 0:
Packet latency average = 19.6358
	minimum = 7
	maximum = 39
Network latency average = 19.6358
	minimum = 7
	maximum = 39
Slowest packet = 3675
Flit latency average = 19.6358
	minimum = 7
	maximum = 39
Slowest flit = 3675
Fragmentation average = 0
	minimum = 0
	maximum = 0
Injected packet rate average = 0.0103125
	minimum = 0.003 (at node 1)
	maximum = 0.015 (at node 12)
Accepted packet rate average = 0.010125
	minimum = 0.006 (at node 10)
	maximum = 0.015 (at node 6)
Injected flit rate average = 0.0103125
	minimum = 0.003 (at node 1)
	maximum = 0.015 (at node 12)
Accepted flit rate average= 0.010125
	minimum = 0.006 (at node 10)
	maximum = 0.015 (at node 6)
Injected packet length average = 1
Accepted packet length average = 1
Total in-flight flits = 3 (0 measured)
latency change    = 0.00674738
throughput change = 0.0123457
Class 0:
Packet latency average = 21.9828
	minimum = 7
	maximum = 33
Network latency average = 21.9828
	minimum = 7
	maximum = 33
Slowest packet = 3864
Flit latency average = 21.9828
	minimum = 7
	maximum = 33
Slowest flit = 3864
Fragmentation average = 0
	minimum = 0
	maximum = 0
Injected packet rate average = 0.007375
	minimum = 0 (at node 0)
	maximum = 0.016 (at node 4)
Accepted packet rate average = 0.00725
	minimum = 0 (at node 8)
	maximum = 0.018 (at node 7)
Injected flit rate average = 0.007375
	minimum = 0 (at node 0)
	maximum = 0.016 (at node 4)
Accepted flit rate average= 0.00725
	minimum = 0 (at node 8)
	maximum = 0.018 (at node 7)
Injected packet length average = 1
Accepted packet length average = 1
Total in-flight flits = 4 (0 measured)
latency change    = 0.106763
throughput change = 0.396552
Warmed up ...Time used is 1500 cycles
Class 0:
Packet latency average = 19.209
	minimum = 7
	maximum = 34
Network latency average = 19.209
	minimum = 7
	maximum = 34
Slowest packet = 3945
Flit latency average = 19.507
	minimum = 7
	maximum = 34
Slowest flit = 3945
Fragmentation average = 0
	minimum = 0
	maximum = 0
Injected packet rate average = 0.0085
	minimum = 0.002 (at node 14)
	maximum = 0.016 (at node 11)
Accepted packet rate average = 0.008875
	minimum = 0.004 (at node 2)
	maximum = 0.018 (at node 1)
Injected flit rate average = 0.0085
	minimum = 0.002 (at node 14)
	maximum = 0.016 (at node 11)
Accepted flit rate average= 0.008875
	minimum = 0.004 (at node 2)
	maximum = 0.018 (at node 1)
Injected packet length average = 1
Accepted packet length average = 1
Total in-flight flits = 1 (1 measured)
latency change    = 0.144402
throughput change = 0.183099
Class 0:
Packet latency average = 19.1667
	minimum = 7
	maximum = 37
Network latency average = 19.1667
	minimum = 7
	maximum = 37
Slowest packet = 3992
Flit latency average = 19.3108
	minimum = 7
	maximum = 37
Slowest flit = 3992
Fragmentation average = 0
	minimum = 0
	maximum = 0
Injected packet rate average = 0.0093125
	minimum = 0.005 (at node 5)
	maximum = 0.014 (at node 15)
Accepted packet rate average = 0.00925
	minimum = 0.005 (at node 8)
	maximum = 0.014 (at node 4)
Injected flit rate average = 0.0093125
	minimum = 0.005 (at node 5)
	maximum = 0.014 (at node 15)
Accepted flit rate average= 0.00925
	minimum = 0.005 (at node 8)
	maximum = 0.014 (at node 4)
Injected packet length average = 1
Accepted packet length average = 1
Total in-flight flits = 5 (5 measured)
latency change    = 0.00220636
throughput change = 0.0405405
Class 0:
Packet latency average = 19.543
	minimum = 7
	maximum = 37
Network latency average = 19.543
	minimum = 7
	maximum = 37
Slowest packet = 3992
Flit latency average = 19.6311
	minimum = 7
	maximum = 37
Slowest flit = 3992
Fragmentation average = 0
	minimum = 0
	maximum = 0
Injected packet rate average = 0.00941667
	minimum = 0.00333333 (at node 5)
	maximum = 0.0133333 (at node 12)
Accepted packet rate average = 0.009375
	minimum = 0.00466667 (at node 8)
	maximum = 0.0133333 (at node 4)
Injected flit rate average = 0.00941667
	minimum = 0.00333333 (at node 5)
	maximum = 0.0133333 (at node 12)
Accepted flit rate average= 0.009375
	minimum = 0.00466667 (at node 8)
	maximum = 0.0133333 (at node 4)
Injected packet length average = 1
Accepted packet length average = 1
Total in-flight flits = 5 (5 measured)
latency change    = 0.019256
throughput change = 0.0133333
Class 0:
Packet latency average = 19.9132
	minimum = 7
	maximum = 46
Network latency average = 19.9132
	minimum = 7
	maximum = 46
Slowest packet = 4117
Flit latency average = 19.9714
	minimum = 7
	maximum = 46
Slowest flit = 4117
Fragmentation average = 0
	minimum = 0
	maximum = 0
Injected packet rate average = 0.00984375
	minimum = 0.004 (at node 5)
	maximum = 0.013 (at node 15)
Accepted packet rate average = 0.00984375
	minimum = 0.0055 (at node 14)
	maximum = 0.013 (at node 13)
Injected flit rate average = 0.00984375
	minimum = 0.004 (at node 5)
	maximum = 0.013 (at node 15)
Accepted flit rate average= 0.00984375
	minimum = 0.0055 (at node 14)
	maximum = 0.013 (at node 13)
Injected packet length average = 1
Accepted packet length average = 1
Total in-flight flits = 4 (4 measured)
latency change    = 0.0185905
throughput change = 0.047619
Draining all recorded packets ...
Draining remaining packets ...
Time taken is 3528 cycles
Class 0:
Packet latency average = 20.9375
	minimum = 7
	maximum = 37
Network latency average = 20.9375
	minimum = 7
	maximum = 37
Slowest packet = 4237
Flit latency average = 20.9375
	minimum = 7
	maximum = 37
Slowest flit = 4237
Fragmentation average = 0
	minimum = 0
	maximum = 0
Injected packet rate average = 0.01025
	minimum = 0.002 (at node 12)
	maximum = 0.026 (at node 4)
Accepted packet rate average = 0.01
	minimum = 0.006 (at node 1)
	maximum = 0.018 (at node 9)
Injected flit rate average = 0.01025
	minimum = 0.002 (at node 12)
	maximum = 0.026 (at node 4)
Accepted flit rate average= 0.01
	minimum = 0.006 (at node 1)
	maximum = 0.018 (at node 9)
Injected packet length average = 1
Accepted packet length average = 1
Total in-flight flits = 2 (0 measured)
latency change    = 1
throughput change = 1
Class 0:
Packet latency average = 20.4557
	minimum = 7
	maximum = 37
Network latency average = 20.4557
	minimum = 7
	maximum = 37
Slowest packet = 4237
Flit latency average = 20.4557
	minimum = 7
	maximum = 37
Slowest flit = 4237
Fragmentation average = 0
	minimum = 0
	maximum = 0
Injected packet rate average = 0.010125
	minimum = 0.005 (at node 12)
	maximum = 0.019 (at node 4)
Accepted packet rate average = 0.009875
	minimum = 0.005 (at node 1)
	maximum = 0.018 (at node 0)
Injected flit rate average = 0.010125
	minimum = 0.005 (at node 12)
	maximum = 0.019 (at node 4)
Accepted flit rate average= 0.009875
	minimum = 0.005 (at node 1)
	maximum = 0.018 (at node 0)
Injected packet length average = 1
Accepted packet length average = 1
Total in-flight flits = 4 (0 measured)
latency change    = 0.0235535
throughput change = 0.0126582
Class 0:
Packet latency average = 21.8085
	minimum = 7
	maximum = 38
Network latency average = 21.8085
	minimum = 7
	maximum = 38
Slowest packet = 4417
Flit latency average = 21.8085
	minimum = 7
	maximum = 38
Slowest flit = 4417
Fragmentation average = 0
	minimum = 0
	maximum = 0
Injected packet rate average = 0.011625
	minimum = 0.006 (at node 4)
	maximum = 0.02 (at node 9)
Accepted packet rate average = 0.01175
	minimum = 0.002 (at node 7)
	maximum = 0.02 (at node 15)
Injected flit rate average = 0.011625
	minimum = 0.006 (at node 4)
	maximum = 0.02 (at node 9)
Accepted flit rate average= 0.01175
	minimum = 0.002 (at node 7)
	maximum = 0.02 (at node 15)
Injected packet length average = 1
Accepted packet length average = 1
Total in-flight flits = 3 (0 measured)
latency change    = 0.0620315
throughput change = 0.159574
Warmed up ...Time used is 1500 cycles
Class 0:
Packet latency average = 19.6154
	minimum = 7
	maximum = 37
Network latency average = 19.6154
	minimum = 7
	maximum = 37
Slowest packet = 4510
Flit latency average = 19.8889
	minimum = 7
	maximum = 37
Slowest flit = 4510
Fragmentation average = 0
	minimum = 0
	maximum = 0
Injected packet rate average = 0.01
	minimum = 0.002 (at node 7)
	maximum = 0.018 (at node 11)
Accepted packet rate average = 0.010125
	minimum = 0 (at node 14)
	maximum = 0.018 (at node 13)
Injected flit rate average = 0.01
	minimum = 0.002 (at node 7)
	maximum = 0.018 (at node 11)
Accepted flit rate average= 0.010125
	minimum = 0 (at node 14)
	maximum = 0.018 (at node 13)
Injected packet length average = 1
Accepted packet length average = 1
Total in-flight flits = 2 (2 measured)
latency change    = 0.111806
throughput change = 0.160494
Class 0:
Packet latency average = 19.6348
	minimum = 7
	maximum = 37
Network latency average = 19.6348
	minimum = 7
	maximum = 37
Slowest packet = 4510
Flit latency average = 19.7569
	minimum = 7
	maximum = 37
Slowest flit = 4510
Fragmentation average = 0
	minimum = 0
	maximum = 0
Injected packet rate average = 0.0111875
	minimum = 0.004 (at node 7)
	maximum = 0.018 (at node 10)
Accepted packet rate average = 0.0113125
	minimum = 0.005 (at node 11)
	maximum = 0.017 (at node 5)
Injected flit rate average = 0.0111875
	minimum = 0.004 (at node 7)
	maximum = 0.018 (at node 10)
Accepted flit rate average= 0.0113125
	minimum = 0.005 (at node 11)
	maximum = 0.017 (at node 5)
Injected packet length average = 1
Accepted packet length average = 1
Total in-flight flits = 1 (1 measured)
latency change    = 0.000990426
throughput change = 0.104972
Class 0:
Packet latency average = 19.5904
	minimum = 7
	maximum = 37
Network latency average = 19.5904
	minimum = 7
	maximum = 37
Slowest packet = 4510
Flit latency average = 19.6786
	minimum = 7
	maximum = 37
Slowest flit = 4510
Fragmentation average = 0
	minimum = 0
	maximum = 0
Injected packet rate average = 0.0105
	minimum = 0.00466667 (at node 7)
	maximum = 0.0153333 (at node 10)
Accepted packet rate average = 0.0105
	minimum = 0.00533333 (at node 11)
	maximum = 0.016 (at node 0)
Injected flit rate average = 0.0105
	minimum = 0.00466667 (at node 7)
	maximum = 0.0153333 (at node 10)
Accepted flit rate average= 0.0105
	minimum = 0.00533333 (at node 11)
	maximum = 0.016 (at node 0)
Injected packet length average = 1
Accepted packet length average = 1
Total in-flight flits = 3 (3 measured)
latency change    = 0.00226999
throughput change = 0.077381
Class 0:
Packet latency average = 19.6697
	minimum = 7
	maximum = 37
Network latency average = 19.6697
	minimum = 7
	maximum = 37
Slowest packet = 4510
Flit latency average = 19.7357
	minimum = 7
	maximum = 37
Slowest flit = 4510
Fragmentation average = 0
	minimum = 0
	maximum = 0
Injected packet rate average = 0.010375
	minimum = 0.0055 (at node 5)
	maximum = 0.014 (at node 2)
Accepted packet rate average = 0.0104063
	minimum = 0.007 (at node 14)
	maximum = 0.0155 (at node 0)
Injected flit rate average = 0.010375
	minimum = 0.0055 (at node 5)
	maximum = 0.014 (at node 2)
Accepted flit rate average= 0.0104063
	minimum = 0.007 (at node 14)
	maximum = 0.0155 (at node 0)
Injected packet length average = 1
Accepted packet length average = 1
Total in-flight flits = 2 (2 measured)
latency change    = 0.00403339
throughput change = 0.00900901
Class 0:
Packet latency average = 19.5407
	minimum = 7
	maximum = 37
Network latency average = 19.5407
	minimum = 7
	maximum = 37
Slowest packet = 4510
Flit latency average = 19.5938
	minimum = 7
	maximum = 37
Slowest flit = 4510
Fragmentation average = 0
	minimum = 0
	maximum = 0
Injected packet rate average = 0.0105
	minimum = 0.006 (at node 7)
	maximum = 0.0144 (at node 4)
Accepted packet rate average = 0.010525
	minimum = 0.0068 (at node 14)
	maximum = 0.0156 (at node 0)
Injected flit rate average = 0.0105
	minimum = 0.006 (at node 7)
	maximum = 0.0144 (at node 4)
Accepted flit rate average= 0.010525
	minimum = 0.0068 (at node 14)
	maximum = 0.0156 (at node 0)
Injected packet length average = 1
Accepted packet length average = 1
Total in-flight flits = 2 (2 measured)
latency change    = 0.006603
throughput change = 0.0112827
Class 0:
Packet latency average = 19.224
	minimum = 7
	maximum = 37
Network latency average = 19.224
	minimum = 7
	maximum = 37
Slowest packet = 4510
Flit latency average = 19.2713
	minimum = 7
	maximum = 37
Slowest flit = 4510
Fragmentation average = 0
	minimum = 0
	maximum = 0
Injected packet rate average = 0.0102917
	minimum = 0.00666667 (at node 7)
	maximum = 0.0136667 (at node 8)
Accepted packet rate average = 0.0102917
	minimum = 0.00666667 (at node 14)
	maximum = 0.014 (at node 0)
Injected flit rate average = 0.0102917
	minimum = 0.00666667 (at node 7)
	maximum = 0.0136667 (at node 8)
Accepted flit rate average= 0.0102917
	minimum = 0.00666667 (at node 14)
	maximum = 0.014 (at node 0)
Injected packet length average = 1
Accepted packet length average = 1
Total in-flight flits = 3 (3 measured)
latency change    = 0.0164709
throughput change = 0.0226721
Draining all recorded packets ...
Draining remaining packets ...
Time taken is 4556 cycles
Class 0:
Packet latency average = 20.7831
	minimum = 7
	maximum = 37
Network latency average = 20.7831
	minimum = 7
	maximum = 37
Slowest packet = 5032
Flit latency average = 20.7831
	minimum = 7
	maximum = 37
Slowest flit = 5032
Fragmentation average = 0
	minimum = 0
	maximum = 0
Injected packet rate average = 0.01075
	minimum = 0.004 (at node 9)
	maximum = 0.02 (at node 12)
Accepted packet rate average = 0.010375
	minimum = 0.004 (at node 3)
	maximum = 0.026 (at node 11)
Injected flit rate average = 0.01075
	minimum = 0.004 (at node 9)
	maximum = 0.02 (at node 12)
Accepted flit rate average= 0.010375
	minimum = 0.004 (at node 3)
	maximum = 0.026 (at node 11)
Injected packet length average = 1
Accepted packet length average = 1
Total in-flight flits = 3 (0 measured)
latency change    = 1
throughput change = 1
Class 0:
Packet latency average = 19.8699
	minimum = 7
	maximum = 37
Network latency average = 19.8699
	minimum = 7
	maximum = 37
Slowest packet = 5032
Flit latency average = 19.8699
	minimum = 7
	maximum = 37
Slowest flit = 5032
Fragmentation average = 0
	minimum = 0
	maximum = 0
Injected packet rate average = 0.009375
	minimum = 0.005 (at node 7)
	maximum = 0.013 (at node 4)
Accepted packet rate average = 0.009125
	minimum = 0.004 (at node 3)
	maximum = 0.016 (at node 11)
Injected flit rate average = 0.009375
	minimum = 0.005 (at node 7)
	maximum = 0.013 (at node 4)
Accepted flit rate average= 0.009125
	minimum = 0.004 (at node 3)
	maximum = 0.016 (at node 11)
Injected packet length average = 1
Accepted packet length average = 1
Total in-flight flits = 4 (0 measured)
latency change    = 0.0459625
throughput change = 0.136986
Class 0:
Packet latency average = 18.6023
	minimum = 7
	maximum = 32
Network latency average = 18.6023
	minimum = 7
	maximum = 32
Slowest packet = 5121
Flit latency average = 18.6023
	minimum = 7
	maximum = 32
Slowest flit = 5121
Fragmentation average = 0
	minimum = 0
	maximum = 0
Injected packet rate average = 0.011125
	minimum = 0.002 (at node 0)
	maximum = 0.018 (at node 3)
Accepted packet rate average = 0.011
	minimum = 0.004 (at node 1)
	maximum = 0.022 (at node 11)
Injected flit rate average = 0.011125
	minimum = 0.002 (at node 0)
	maximum = 0.018 (at node 3)
Accepted flit rate average= 0.011
	minimum = 0.004 (at node 1)
	maximum = 0.022 (at node 11)
Injected packet length average = 1
Accepted packet length average = 1
Total in-flight flits = 5 (0 measured)
latency change    = 0.0681417
throughput change = 0.170455
Warmed up ...Time used is 1500 cycles
Class 0:
Packet latency average = 20.0706
	minimum = 7
	maximum = 37
Network latency average = 20.0706
	minimum = 7
	maximum = 37
Slowest packet = 5201
Flit latency average = 20.4
	minimum = 7
	maximum = 37
Slowest flit = 5201
Fragmentation average = 0
	minimum = 0
	maximum = 0
Injected packet rate average = 0.011125
	minimum = 0.004 (at node 0)
	maximum = 0.02 (at node 15)
Accepted packet rate average = 0.01125
	minimum = 0.004 (at node 5)
	maximum = 0.024 (at node 10)
Injected flit rate average = 0.011125
	minimum = 0.004 (at node 0)
	maximum = 0.02 (at node 15)
Accepted flit rate average= 0.01125
	minimum = 0.004 (at node 5)
	maximum = 0.024 (at node 10)
Injected packet length average = 1
Accepted packet length average = 1
Total in-flight flits = 4 (4 measured)
latency change    = 0.0731576
throughput change = 0.0222222
Class 0:
Packet latency average = 20.2182
	minimum = 7
	maximum = 37
Network latency average = 20.2182
	minimum = 7
	maximum = 37
Slowest packet = 5201
Flit latency average = 20.3882
	minimum = 7
	maximum = 37
Slowest flit = 5201
Fragmentation average = 0
	minimum = 0
	maximum = 0
Injected packet rate average = 0.0105625
	minimum = 0.003 (at node 0)
	maximum = 0.016 (at node 6)
Accepted packet rate average = 0.010625
	minimum = 0.007 (at node 5)
	maximum = 0.018 (at node 10)
Injected flit rate average = 0.0105625
	minimum = 0.003 (at node 0)
	maximum = 0.016 (at node 6)
Accepted flit rate average= 0.010625
	minimum = 0.007 (at node 5)
	maximum = 0.018 (at node 10)
Injected packet length average = 1
Accepted packet length average = 1
Total in-flight flits = 4 (4 measured)
latency change    = 0.00730004
throughput change = 0.0588235
Class 0:
Packet latency average = 19.966
	minimum = 7
	maximum = 37
Network latency average = 19.966
	minimum = 7
	maximum = 37
Slowest packet = 5201
Flit latency average = 20.0917
	minimum = 7
	maximum = 37
Slowest flit = 5201
Fragmentation average = 0
	minimum = 0
	maximum = 0
Injected packet rate average = 0.00991667
	minimum = 0.006 (at node 9)
	maximum = 0.0146667 (at node 6)
Accepted packet rate average = 0.01
	minimum = 0.006 (at node 5)
	maximum = 0.0146667 (at node 2)
Injected flit rate average = 0.00991667
	minimum = 0.006 (at node 9)
	maximum = 0.0146667 (at node 6)
Accepted flit rate average= 0.01
	minimum = 0.006 (at node 5)
	maximum = 0.0146667 (at node 2)
Injected packet length average = 1
Accepted packet length average = 1
Total in-flight flits = 3 (3 measured)
latency change    = 0.0126327
throughput change = 0.0625
Class 0:
Packet latency average = 20.0032
	minimum = 7
	maximum = 37
Network latency average = 20.0032
	minimum = 7
	maximum = 37
Slowest packet = 5201
Flit latency average = 20.0963
	minimum = 7
	maximum = 37
Slowest flit = 5201
Fragmentation average = 0
	minimum = 0
	maximum = 0
Injected packet rate average = 0.00996875
	minimum = 0.0065 (at node 14)
	maximum = 0.0155 (at node 11)
Accepted packet rate average = 0.0100625
	minimum = 0.0065 (at node 5)
	maximum = 0.013 (at node 2)
Injected flit rate average = 0.00996875
	minimum = 0.0065 (at node 14)
	maximum = 0.0155 (at node 11)
Accepted flit rate average= 0.0100625
	minimum = 0.0065 (at node 5)
	maximum = 0.013 (at node 2)
Injected packet length average = 1
Accepted packet length average = 1
Total in-flight flits = 2 (2 measured)
latency change    = 0.00185956
throughput change = 0.00621118
Class 0:
Packet latency average = 19.9871
	minimum = 7
	maximum = 37
Network latency average = 19.9871
	minimum = 7
	maximum = 37
Slowest packet = 5201
Flit latency average = 20.0635
	minimum = 7
	maximum = 37
Slowest flit = 5201
Fragmentation average = 0
	minimum = 0
	maximum = 0
Injected packet rate average = 0.0098
	minimum = 0.0072 (at node 0)
	maximum = 0.0148 (at node 11)
Accepted packet rate average = 0.00985
	minimum = 0.0076 (at node 5)
	maximum = 0.012 (at node 10)
Injected flit rate average = 0.0098
	minimum = 0.0072 (at node 0)
	maximum = 0.0148 (at node 11)
Accepted flit rate average= 0.00985
	minimum = 0.0076 (at node 5)
	maximum = 0.012 (at node 10)
Injected packet length average = 1
Accepted packet length average = 1
Total in-flight flits = 3 (3 measured)
latency change    = 0.000800917
throughput change = 0.0215736
Class 0:
Packet latency average = 20.0955
	minimum = 7
	maximum = 37
Network latency average = 20.0955
	minimum = 7
	maximum = 37
Slowest packet = 5201
Flit latency average = 20.1576
	minimum = 7
	maximum = 37
Slowest flit = 5201
Fragmentation average = 0
	minimum = 0
	maximum = 0
Injected packet rate average = 0.009875
	minimum = 0.00733333 (at node 12)
	maximum = 0.015 (at node 7)
Accepted packet rate average = 0.00991667
	minimum = 0.007 (at node 14)
	maximum = 0.0123333 (at node 9)
Injected flit rate average = 0.009875
	minimum = 0.00733333 (at node 12)
	maximum = 0.015 (at node 7)
Accepted flit rate average= 0.00991667
	minimum = 0.007 (at node 14)
	maximum = 0.0123333 (at node 9)
Injected packet length average = 1
Accepted packet length average = 1
Total in-flight flits = 3 (3 measured)
latency change    = 0.00539398
throughput change = 0.00672269
Draining all recorded packets ...
Draining remaining packets ...
Time taken is 4522 cycles
Class 0:
Packet latency average = 20.1622
	minimum = 7
	maximum = 44
Network latency average = 20.1622
	minimum = 7
	maximum = 44
Slowest packet = 5685
Flit latency average = 20.1622
	minimum = 7
	maximum = 44
Slowest flit = 5685
Fragmentation average = 0
	minimum = 0
	maximum = 0
Injected packet rate average = 0.009875
	minimum = 0.002 (at node 0)
	maximum = 0.016 (at node 1)
Accepted packet rate average = 0.00925
	minimum = 0.002 (at node 10)
	maximum = 0.014 (at node 4)
Injected flit rate average = 0.009875
	minimum = 0.002 (at node 0)
	maximum = 0.016 (at node 1)
Accepted flit rate average= 0.00925
	minimum = 0.002 (at node 10)
	maximum = 0.014 (at node 4)
Injected packet length average = 1
Accepted packet length average = 1
Total in-flight flits = 5 (0 measured)
latency change    = 1
throughput change = 1
Class 0:
Packet latency average = 20.2252
	minimum = 7
	maximum = 44
Network latency average = 20.2252
	minimum = 7
	maximum = 44
Slowest packet = 5685
Flit latency average = 20.2252
	minimum = 7
	maximum = 44
Slowest flit = 5685
Fragmentation average = 0
	minimum = 0
	maximum = 0
Injected packet rate average = 0.0095625
	minimum = 0.006 (at node 0)
	maximum = 0.014 (at node 3)
Accepted packet rate average = 0.0094375
	minimum = 0.007 (at node 10)
	maximum = 0.016 (at node 15)
Injected flit rate average = 0.0095625
	minimum = 0.006 (at node 0)
	maximum = 0.014 (at node 3)
Accepted flit rate average= 0.0094375
	minimum = 0.007 (at node 10)
	maximum = 0.016 (at node 15)
Injected packet length average = 1
Accepted packet length average = 1
Total in-flight flits = 2 (0 measured)
latency change    = 0.0031151
throughput change = 0.0198675
Class 0:
Packet latency average = 20.0143
	minimum = 7
	maximum = 32
Network latency average = 20.0143
	minimum = 7
	maximum = 32
Slowest packet = 5848
Flit latency average = 20.0143
	minimum = 7
	maximum = 32
Slowest flit = 5848
Fragmentation average = 0
	minimum = 0
	maximum = 0
Injected packet rate average = 0.00875
	minimum = 0 (at node 6)
	maximum = 0.016 (at node 15)
Accepted packet rate average = 0.00875
	minimum = 0.004 (at node 13)
	maximum = 0.012 (at node 4)
Injected flit rate average = 0.00875
	minimum = 0 (at node 6)
	maximum = 0.016 (at node 15)
Accepted flit rate average= 0.00875
	minimum = 0.004 (at node 13)
	maximum = 0.012 (at node 4)
Injected packet length average = 1
Accepted packet length average = 1
Total in-flight flits = 2 (0 measured)
latency change    = 0.0105365
throughput change = 0.0785714
Warmed up ...Time used is 1500 cycles
Class 0:
Packet latency average = 18.7901
	minimum = 7
	maximum = 37
Network latency average = 18.7901
	minimum = 7
	maximum = 37
Slowest packet = 5898
Flit latency average = 19.0482
	minimum = 7
	maximum = 37
Slowest flit = 5898
Fragmentation average = 0
	minimum = 0
	maximum = 0
Injected packet rate average = 0.0105
	minimum = 0.002 (at node 15)
	maximum = 0.02 (at node 7)
Accepted packet rate average = 0.010375
	minimum = 0.002 (at node 13)
	maximum = 0.016 (at node 2)
Injected flit rate average = 0.0105
	minimum = 0.002 (at node 15)
	maximum = 0.02 (at node 7)
Accepted flit rate average= 0.010375
	minimum = 0.002 (at node 13)
	maximum = 0.016 (at node 2)
Injected packet length average = 1
Accepted packet length average = 1
Total in-flight flits = 3 (3 measured)
latency change    = 0.0651492
throughput change = 0.156627
Class 0:
Packet latency average = 19.2785
	minimum = 7
	maximum = 37
Network latency average = 19.2785
	minimum = 7
	maximum = 37
Slowest packet = 5898
Flit latency average = 19.4062
	minimum = 7
	maximum = 37
Slowest flit = 5898
Fragmentation average = 0
	minimum = 0
	maximum = 0
Injected packet rate average = 0.010125
	minimum = 0.005 (at node 11)
	maximum = 0.017 (at node 7)
Accepted packet rate average = 0.01
	minimum = 0.006 (at node 7)
	maximum = 0.014 (at node 4)
Injected flit rate average = 0.010125
	minimum = 0.005 (at node 11)
	maximum = 0.017 (at node 7)
Accepted flit rate average= 0.01
	minimum = 0.006 (at node 7)
	maximum = 0.014 (at node 4)
Injected packet length average = 1
Accepted packet length average = 1
Total in-flight flits = 4 (4 measured)
latency change    = 0.0253317
throughput change = 0.0375
Class 0:
Packet latency average = 19.5641
	minimum = 7
	maximum = 37
Network latency average = 19.5641
	minimum = 7
	maximum = 37
Slowest packet = 5898
Flit latency average = 19.6483
	minimum = 7
	maximum = 37
Slowest flit = 5898
Fragmentation average = 0
	minimum = 0
	maximum = 0
Injected packet rate average = 0.00979167
	minimum = 0.00666667 (at node 11)
	maximum = 0.0153333 (at node 7)
Accepted packet rate average = 0.00983333
	minimum = 0.006 (at node 9)
	maximum = 0.0133333 (at node 3)
Injected flit rate average = 0.00979167
	minimum = 0.00666667 (at node 11)
	maximum = 0.0153333 (at node 7)
Accepted flit rate average= 0.00983333
	minimum = 0.006 (at node 9)
	maximum = 0.0133333 (at node 3)
Injected packet length average = 1
Accepted packet length average = 1
Total in-flight flits = 1 (1 measured)
latency change    = 0.0145993
throughput change = 0.0169492
Class 0:
Packet latency average = 19.4092
	minimum = 7
	maximum = 37
Network latency average = 19.4092
	minimum = 7
	maximum = 37
Slowest packet = 5898
Flit latency average = 19.4754
	minimum = 7
	maximum = 37
Slowest flit = 5898
Fragmentation average = 0
	minimum = 0
	maximum = 0
Injected packet rate average = 0.0095
	minimum = 0.006 (at node 12)
	maximum = 0.013 (at node 0)
Accepted packet rate average = 0.00953125
	minimum = 0.0055 (at node 15)
	maximum = 0.012 (at node 8)
Injected flit rate average = 0.0095
	minimum = 0.006 (at node 12)
	maximum = 0.013 (at node 0)
Accepted flit rate average= 0.00953125
	minimum = 0.0055 (at node 15)
	maximum = 0.012 (at node 8)
Injected packet length average = 1
Accepted packet length average = 1
Total in-flight flits = 1 (1 measured)
latency change    = 0.00797876
throughput change = 0.031694
Draining all recorded packets ...
Draining remaining packets ...
Time taken is 3539 cycles
Class 0:
Packet latency average = 19.1231
	minimum = 7
	maximum = 38
Network latency average = 19.1231
	minimum = 7
	maximum = 38
Slowest packet = 6220
Flit latency average = 19.1231
	minimum = 7
	maximum = 38
Slowest flit = 6220
Fragmentation average = 0
	minimum = 0
	maximum = 0
Injected packet rate average = 0.0085
	minimum = 0 (at node 15)
	maximum = 0.014 (at node 0)
Accepted packet rate average = 0.008125
	minimum = 0 (at node 3)
	maximum = 0.02 (at node 11)
Injected flit rate average = 0.0085
	minimum = 0 (at node 15)
	maximum = 0.014 (at node 0)
Accepted flit rate average= 0.008125
	minimum = 0 (at node 3)
	maximum = 0.02 (at node 11)
Injected packet length average = 1
Accepted packet length average = 1
Total in-flight flits = 3 (0 measured)
latency change    = 1
throughput change = 1
Class 0:
Packet latency average = 19.0828
	minimum = 7
	maximum = 44
Network latency average = 19.0828
	minimum = 7
	maximum = 44
Slowest packet = 6317
Flit latency average = 19.0828
	minimum = 7
	maximum = 44
Slowest flit = 6317
Fragmentation average = 0
	minimum = 0
	maximum = 0
Injected packet rate average = 0.0101875
	minimum = 0.004 (at node 15)
	maximum = 0.017 (at node 0)
Accepted packet rate average = 0.0098125
	minimum = 0.006 (at node 3)
	maximum = 0.016 (at node 11)
Injected flit rate average = 0.0101875
	minimum = 0.004 (at node 15)
	maximum = 0.017 (at node 0)
Accepted flit rate average= 0.0098125
	minimum = 0.006 (at node 3)
	maximum = 0.016 (at node 11)
Injected packet length average = 1
Accepted packet length average = 1
Total in-flight flits = 6 (0 measured)
latency change    = 0.00211051
throughput change = 0.171975
Class 0:
Packet latency average = 18.7333
	minimum = 7
	maximum = 37
Network latency average = 18.7333
	minimum = 7
	maximum = 37
Slowest packet = 6421
Flit latency average = 18.7333
	minimum = 7
	maximum = 37
Slowest flit = 6421
Fragmentation average = 0
	minimum = 0
	maximum = 0
Injected packet rate average = 0.008875
	minimum = 0 (at node 13)
	maximum = 0.018 (at node 12)
Accepted packet rate average = 0.009375
	minimum = 0.002 (at node 0)
	maximum = 0.02 (at node 15)
Injected flit rate average = 0.008875
	minimum = 0 (at node 13)
	maximum = 0.018 (at node 12)
Accepted flit rate average= 0.009375
	minimum = 0.002 (at node 0)
	maximum = 0.02 (at node 15)
Injected packet length average = 1
Accepted packet length average = 1
Total in-flight flits = 2 (0 measured)
latency change    = 0.0186549
throughput change = 0.0466667
Warmed up ...Time used is 1500 cycles
Class 0:
Packet latency average = 20.1324
	minimum = 7
	maximum = 37
Network latency average = 20.1324
	minimum = 7
	maximum = 37
Slowest packet = 6492
Flit latency average = 20.1857
	minimum = 7
	maximum = 37
Slowest flit = 6492
Fragmentation average = 0
	minimum = 0
	maximum = 0
Injected packet rate average = 0.009
	minimum = 0.002 (at node 2)
	maximum = 0.02 (at node 13)
Accepted packet rate average = 0.00875
	minimum = 0.002 (at node 10)
	maximum = 0.016 (at node 1)
Injected flit rate average = 0.009
	minimum = 0.002 (at node 2)
	maximum = 0.02 (at node 13)
Accepted flit rate average= 0.00875
	minimum = 0.002 (at node 10)
	maximum = 0.016 (at node 1)
Injected packet length average = 1
Accepted packet length average = 1
Total in-flight flits = 4 (4 measured)
latency change    = 0.0694911
throughput change = 0.0714286
Class 0:
Packet latency average = 19.9933
	minimum = 7
	maximum = 37
Network latency average = 19.9933
	minimum = 7
	maximum = 37
Slowest packet = 6492
Flit latency average = 20.0199
	minimum = 7
	maximum = 37
Slowest flit = 6492
Fragmentation average = 0
	minimum = 0
	maximum = 0
Injected packet rate average = 0.0093125
	minimum = 0.007 (at node 2)
	maximum = 0.012 (at node 3)
Accepted packet rate average = 0.0094375
	minimum = 0.006 (at node 2)
	maximum = 0.014 (at node 1)
Injected flit rate average = 0.0093125
	minimum = 0.007 (at node 2)
	maximum = 0.012 (at node 3)
Accepted flit rate average= 0.0094375
	minimum = 0.006 (at node 2)
	maximum = 0.014 (at node 1)
Injected packet length average = 1
Accepted packet length average = 1
Total in-flight flits = 0 (0 measured)
latency change    = 0.00695555
throughput change = 0.0728477
Class 0:
Packet latency average = 20.1953
	minimum = 7
	maximum = 37
Network latency average = 20.1953
	minimum = 7
	maximum = 37
Slowest packet = 6492
Flit latency average = 20.212
	minimum = 7
	maximum = 37
Slowest flit = 6492
Fragmentation average = 0
	minimum = 0
	maximum = 0
Injected packet rate average = 0.00908333
	minimum = 0.00666667 (at node 2)
	maximum = 0.0113333 (at node 4)
Accepted packet rate average = 0.00904167
	minimum = 0.00666667 (at node 2)
	maximum = 0.012 (at node 3)
Injected flit rate average = 0.00908333
	minimum = 0.00666667 (at node 2)
	maximum = 0.0113333 (at node 4)
Accepted flit rate average= 0.00904167
	minimum = 0.00666667 (at node 2)
	maximum = 0.012 (at node 3)
Injected packet length average = 1
Accepted packet length average = 1
Total in-flight flits = 3 (3 measured)
latency change    = 0.0100053
throughput change = 0.0437788
Class 0:
Packet latency average = 20.1974
	minimum = 7
	maximum = 37
Network latency average = 20.1974
	minimum = 7
	maximum = 37
Slowest packet = 6492
Flit latency average = 20.2092
	minimum = 7
	maximum = 37
Slowest flit = 6492
Fragmentation average = 0
	minimum = 0
	maximum = 0
Injected packet rate average = 0.009625
	minimum = 0.007 (at node 6)
	maximum = 0.0115 (at node 3)
Accepted packet rate average = 0.0095625
	minimum = 0.0075 (at node 9)
	maximum = 0.0125 (at node 3)
Injected flit rate average = 0.009625
	minimum = 0.007 (at node 6)
	maximum = 0.0115 (at node 3)
Accepted flit rate average= 0.0095625
	minimum = 0.0075 (at node 9)
	maximum = 0.0125 (at node 3)
Injected packet length average = 1
Accepted packet length average = 1
Total in-flight flits = 4 (4 measured)
latency change    = 9.99924e-05
throughput change = 0.0544662
Class 0:
Packet latency average = 20.4698
	minimum = 7
	maximum = 40
Network latency average = 20.4698
	minimum = 7
	maximum = 40
Slowest packet = 6775
Flit latency average = 20.4778
	minimum = 7
	maximum = 40
Slowest flit = 6775
Fragmentation average = 0
	minimum = 0
	maximum = 0
Injected packet rate average = 0.00955
	minimum = 0.0072 (at node 12)
	maximum = 0.012 (at node 8)
Accepted packet rate average = 0.009575
	minimum = 0.0064 (at node 9)
	maximum = 0.0128 (at node 3)
Injected flit rate average = 0.00955
	minimum = 0.0072 (at node 12)
	maximum = 0.012 (at node 8)
Accepted flit rate average= 0.009575
	minimum = 0.0064 (at node 9)
	maximum = 0.0128 (at node 3)
Injected packet length average = 1
Accepted packet length average = 1
Total in-flight flits = 1 (1 measured)
latency change    = 0.0133097
throughput change = 0.00130548
Class 0:
Packet latency average = 20.2806
	minimum = 7
	maximum = 40
Network latency average = 20.2806
	minimum = 7
	maximum = 40
Slowest packet = 6775
Flit latency average = 20.2882
	minimum = 7
	maximum = 40
Slowest flit = 6775
Fragmentation average = 0
	minimum = 0
	maximum = 0
Injected packet rate average = 0.00941667
	minimum = 0.00666667 (at node 12)
	maximum = 0.0116667 (at node 8)
Accepted packet rate average = 0.00939583
	minimum = 0.00666667 (at node 9)
	maximum = 0.013 (at node 14)
Injected flit rate average = 0.00941667
	minimum = 0.00666667 (at node 12)
	maximum = 0.0116667 (at node 8)
Accepted flit rate average= 0.00939583
	minimum = 0.00666667 (at node 9)
	maximum = 0.013 (at node 14)
Injected packet length average = 1
Accepted packet length average = 1
Total in-flight flits = 3 (3 measured)
latency change    = 0.00932874
throughput change = 0.0190687
Class 0:
Packet latency average = 20.1045
	minimum = 7
	maximum = 40
Network latency average = 20.1045
	minimum = 7
	maximum = 40
Slowest packet = 6775
Flit latency average = 20.1115
	minimum = 7
	maximum = 40
Slowest flit = 6775
Fragmentation average = 0
	minimum = 0
	maximum = 0
Injected packet rate average = 0.00971429
	minimum = 0.00742857 (at node 12)
	maximum = 0.0128571 (at node 4)
Accepted packet rate average = 0.00960714
	minimum = 0.00714286 (at node 9)
	maximum = 0.0131429 (at node 14)
Injected flit rate average = 0.00971429
	minimum = 0.00742857 (at node 12)
	maximum = 0.0128571 (at node 4)
Accepted flit rate average= 0.00960714
	minimum = 0.00714286 (at node 9)
	maximum = 0.0131429 (at node 14)
Injected packet length average = 1
Accepted packet length average = 1
Total in-flight flits = 8 (8 measured)
latency change    = 0.00876153
throughput change = 0.021995
Draining all recorded packets ...
Draining remaining packets ...
Time taken is 5057 cycles
Class 0:
Packet latency average = 20.6364
	minimum = 7
	maximum = 37
Network latency average = 20.6364
	minimum = 7
	maximum = 37
Slowest packet = 6998
Flit latency average = 20.6364
	minimum = 7
	maximum = 37
Slowest flit = 6998
Fragmentation average = 0
	minimum = 0
	maximum = 0
Injected packet rate average = 0.009875
	minimum = 0.004 (at node 15)
	maximum = 0.014 (at node 4)
Accepted packet rate average = 0.009625
	minimum = 0.002 (at node 0)
	maximum = 0.016 (at node 3)
Injected flit rate average = 0.009875
	minimum = 0.004 (at node 15)
	maximum = 0.014 (at node 4)
Accepted flit rate average= 0.009625
	minimum = 0.002 (at node 0)
	maximum = 0.016 (at node 3)
Injected packet length average = 1
Accepted packet length average = 1
Total in-flight flits = 2 (0 measured)
latency change    = 1
throughput change = 1
Class 0:
Packet latency average = 19.9342
	minimum = 7
	maximum = 37
Network latency average = 19.9342
	minimum = 7
	maximum = 37
Slowest packet = 6998
Flit latency average = 19.9342
	minimum = 7
	maximum = 37
Slowest flit = 6998
Fragmentation average = 0
	minimum = 0
	maximum = 0
Injected packet rate average = 0.0096875
	minimum = 0.007 (at node 15)
	maximum = 0.014 (at node 8)
Accepted packet rate average = 0.0095
	minimum = 0.003 (at node 6)
	maximum = 0.013 (at node 4)
Injected flit rate average = 0.0096875
	minimum = 0.007 (at node 15)
	maximum = 0.014 (at node 8)
Accepted flit rate average= 0.0095
	minimum = 0.003 (at node 6)
	maximum = 0.013 (at node 4)
Injected packet length average = 1
Accepted packet length average = 1
Total in-flight flits = 3 (0 measured)
latency change    = 0.0352235
throughput change = 0.0131579
Class 0:
Packet latency average = 20.7791
	minimum = 7
	maximum = 37
Network latency average = 20.7791
	minimum = 7
	maximum = 37
Slowest packet = 7169
Flit latency average = 20.7791
	minimum = 7
	maximum = 37
Slowest flit = 7169
Fragmentation average = 0
	minimum = 0
	maximum = 0
Injected packet rate average = 0.01075
	minimum = 0.002 (at node 6)
	maximum = 0.022 (at node 15)
Accepted packet rate average = 0.01075
	minimum = 0.002 (at node 6)
	maximum = 0.026 (at node 4)
Injected flit rate average = 0.01075
	minimum = 0.002 (at node 6)
	maximum = 0.022 (at node 15)
Accepted flit rate average= 0.01075
	minimum = 0.002 (at node 6)
	maximum = 0.026 (at node 4)
Injected packet length average = 1
Accepted packet length average = 1
Total in-flight flits = 3 (0 measured)
latency change    = 0.0406591
throughput change = 0.116279
Warmed up ...Time used is 1500 cycles
Class 0:
Packet latency average = 19.9342
	minimum = 7
	maximum = 37
Network latency average = 19.9342
	minimum = 7
	maximum = 37
Slowest packet = 7242
Flit latency average = 20.2025
	minimum = 7
	maximum = 37
Slowest flit = 7242
Fragmentation average = 0
	minimum = 0
	maximum = 0
Injected packet rate average = 0.009625
	minimum = 0.002 (at node 15)
	maximum = 0.018 (at node 3)
Accepted packet rate average = 0.009875
	minimum = 0 (at node 11)
	maximum = 0.014 (at node 3)
Injected flit rate average = 0.009625
	minimum = 0.002 (at node 15)
	maximum = 0.018 (at node 3)
Accepted flit rate average= 0.009875
	minimum = 0 (at node 11)
	maximum = 0.014 (at node 3)
Injected packet length average = 1
Accepted packet length average = 1
Total in-flight flits = 1 (1 measured)
latency change    = 0.0423824
throughput change = 0.0886076
Class 0:
Packet latency average = 20.2323
	minimum = 7
	maximum = 37
Network latency average = 20.2323
	minimum = 7
	maximum = 37
Slowest packet = 7242
Flit latency average = 20.3608
	minimum = 7
	maximum = 37
Slowest flit = 7242
Fragmentation average = 0
	minimum = 0
	maximum = 0
Injected packet rate average = 0.0098125
	minimum = 0.005 (at node 13)
	maximum = 0.014 (at node 1)
Accepted packet rate average = 0.009875
	minimum = 0.006 (at node 11)
	maximum = 0.014 (at node 10)
Injected flit rate average = 0.0098125
	minimum = 0.005 (at node 13)
	maximum = 0.014 (at node 1)
Accepted flit rate average= 0.009875
	minimum = 0.006 (at node 11)
	maximum = 0.014 (at node 10)
Injected packet length average = 1
Accepted packet length average = 1
Total in-flight flits = 2 (2 measured)
latency change    = 0.0147313
throughput change = 0
Class 0:
Packet latency average = 20.0984
	minimum = 7
	maximum = 37
Network latency average = 20.0984
	minimum = 7
	maximum = 37
Slowest packet = 7242
Flit latency average = 20.1822
	minimum = 7
	maximum = 37
Slowest flit = 7242
Fragmentation average = 0
	minimum = 0
	maximum = 0
Injected packet rate average = 0.0102917
	minimum = 0.00666667 (at node 10)
	maximum = 0.0146667 (at node 3)
Accepted packet rate average = 0.0102917
	minimum = 0.00666667 (at node 9)
	maximum = 0.016 (at node 3)
Injected flit rate average = 0.0102917
[...]
	maximum = 37
Slowest packet = 29627
Flit latency average = 18.9112
	minimum = 7
	maximum = 37
Slowest flit = 29627
Fragmentation average = 0
	minimum = 0
	maximum = 0
Injected packet rate average = 0.0105625
	minimum = 0.006 (at node 6)
	maximum = 0.016 (at node 13)
Accepted packet rate average = 0.0105625
	minimum = 0.005 (at node 15)
	maximum = 0.016 (at node 2)
Injected flit rate average = 0.0105625
	minimum = 0.006 (at node 6)
	maximum = 0.016 (at node 13)
Accepted flit rate average= 0.0105625
	minimum = 0.005 (at node 15)
	maximum = 0.016 (at node 2)
Injected packet length average = 1
Accepted packet length average = 1
Total in-flight flits = 4 (4 measured)
latency change    = 0.0805269
throughput change = 0.100592
Class 0:
Packet latency average = 19.2769
	minimum = 7
	maximum = 37
Network latency average = 19.2769
	minimum = 7
	maximum = 37
Slowest packet = 29627
Flit latency average = 19.3415
	minimum = 7
	maximum = 37
Slowest flit = 29627
Fragmentation average = 0
	minimum = 0
	maximum = 0
Injected packet rate average = 0.010125
	minimum = 0.006 (at node 11)
	maximum = 0.0146667 (at node 8)
Accepted packet rate average = 0.01025
	minimum = 0.00666667 (at node 1)
	maximum = 0.014 (at node 2)
Injected flit rate average = 0.010125
	minimum = 0.006 (at node 11)
	maximum = 0.0146667 (at node 8)
Accepted flit rate average= 0.01025
	minimum = 0.00666667 (at node 1)
	maximum = 0.014 (at node 2)
Injected packet length average = 1
Accepted packet length average = 1
Total in-flight flits = 1 (1 measured)
latency change    = 0.024423
throughput change = 0.0304878
Class 0:
Packet latency average = 19.3867
	minimum = 7
	maximum = 37
Network latency average = 19.3867
	minimum = 7
	maximum = 37
Slowest packet = 29627
Flit latency average = 19.4375
	minimum = 7
	maximum = 37
Slowest flit = 29627
Fragmentation average = 0
	minimum = 0
	maximum = 0
Injected packet rate average = 0.0094375
	minimum = 0.005 (at node 12)
	maximum = 0.0145 (at node 8)
Accepted packet rate average = 0.0095
	minimum = 0.0065 (at node 1)
	maximum = 0.013 (at node 4)
Injected flit rate average = 0.0094375
	minimum = 0.005 (at node 12)
	maximum = 0.0145 (at node 8)
Accepted flit rate average= 0.0095
	minimum = 0.0065 (at node 1)
	maximum = 0.013 (at node 4)
Injected packet length average = 1
Accepted packet length average = 1
Total in-flight flits = 2 (2 measured)
latency change    = 0.00566406
throughput change = 0.0789474
Class 0:
Packet latency average = 19.3858
	minimum = 7
	maximum = 41
Network latency average = 19.3858
	minimum = 7
	maximum = 41
Slowest packet = 29876
Flit latency average = 19.4246
	minimum = 7
	maximum = 41
Slowest flit = 29876
Fragmentation average = 0
	minimum = 0
	maximum = 0
Injected packet rate average = 0.00995
	minimum = 0.006 (at node 11)
	maximum = 0.0136 (at node 8)
Accepted packet rate average = 0.00995
	minimum = 0.0068 (at node 10)
	maximum = 0.012 (at node 2)
Injected flit rate average = 0.00995
	minimum = 0.006 (at node 11)
	maximum = 0.0136 (at node 8)
Accepted flit rate average= 0.00995
	minimum = 0.0068 (at node 10)
	maximum = 0.012 (at node 2)
Injected packet length average = 1
Accepted packet length average = 1
Total in-flight flits = 4 (4 measured)
latency change    = 4.53871e-05
throughput change = 0.0452261
Class 0:
Packet latency average = 19.3602
	minimum = 7
	maximum = 41
Network latency average = 19.3602
	minimum = 7
	maximum = 41
Slowest packet = 29876
Flit latency average = 19.3929
	minimum = 7
	maximum = 41
Slowest flit = 29876
Fragmentation average = 0
	minimum = 0
	maximum = 0
Injected packet rate average = 0.00991667
	minimum = 0.006 (at node 11)
	maximum = 0.0126667 (at node 8)
Accepted packet rate average = 0.00991667
	minimum = 0.00766667 (at node 5)
	maximum = 0.012 (at node 2)
Injected flit rate average = 0.00991667
	minimum = 0.006 (at node 11)
	maximum = 0.0126667 (at node 8)
Accepted flit rate average= 0.00991667
	minimum = 0.00766667 (at node 5)
	maximum = 0.012 (at node 2)
Injected packet length average = 1
Accepted packet length average = 1
Total in-flight flits = 4 (4 measured)
latency change    = 0.0013232
throughput change = 0.00336134
Class 0:
Packet latency average = 19.2886
	minimum = 7
	maximum = 41
Network latency average = 19.2886
	minimum = 7
	maximum = 41
Slowest packet = 29876
Flit latency average = 19.3171
	minimum = 7
	maximum = 41
Slowest flit = 29876
Fragmentation average = 0
	minimum = 0
	maximum = 0
Injected packet rate average = 0.00989286
	minimum = 0.00657143 (at node 11)
	maximum = 0.012 (at node 1)
Accepted packet rate average = 0.00991071
	minimum = 0.00742857 (at node 8)
	maximum = 0.0122857 (at node 11)
Injected flit rate average = 0.00989286
	minimum = 0.00657143 (at node 11)
	maximum = 0.012 (at node 1)
Accepted flit rate average= 0.00991071
	minimum = 0.00742857 (at node 8)
	maximum = 0.0122857 (at node 11)
Injected packet length average = 1
Accepted packet length average = 1
Total in-flight flits = 3 (3 measured)
latency change    = 0.00371221
throughput change = 0.000600601
Draining all recorded packets ...
Draining remaining packets ...
Time taken is 5039 cycles
Class 0:
Packet latency average = 18.8415
	minimum = 7
	maximum = 32
Network latency average = 18.8415
	minimum = 7
	maximum = 32
Slowest packet = 30055
Flit latency average = 18.8415
	minimum = 7
	maximum = 32
Slowest flit = 30055
Fragmentation average = 0
	minimum = 0
	maximum = 0
Injected packet rate average = 0.010875
	minimum = 0.004 (at node 4)
	maximum = 0.018 (at node 2)
Accepted packet rate average = 0.01025
	minimum = 0.004 (at node 11)
	maximum = 0.016 (at node 2)
Injected flit rate average = 0.010875
	minimum = 0.004 (at node 4)
	maximum = 0.018 (at node 2)
Accepted flit rate average= 0.01025
	minimum = 0.004 (at node 11)
	maximum = 0.016 (at node 2)
Injected packet length average = 1
Accepted packet length average = 1
Total in-flight flits = 5 (0 measured)
latency change    = 1
throughput change = 1
Class 0:
Packet latency average = 19.4224
	minimum = 7
	maximum = 32
Network latency average = 19.4224
	minimum = 7
	maximum = 32
Slowest packet = 30055
Flit latency average = 19.4224
	minimum = 7
	maximum = 32
Slowest flit = 30055
Fragmentation average = 0
	minimum = 0
	maximum = 0
Injected packet rate average = 0.0100625
	minimum = 0.007 (at node 1)
	maximum = 0.014 (at node 3)
Accepted packet rate average = 0.0100625
	minimum = 0.005 (at node 3)
	maximum = 0.015 (at node 8)
Injected flit rate average = 0.0100625
	minimum = 0.007 (at node 1)
	maximum = 0.014 (at node 3)
Accepted flit rate average= 0.0100625
	minimum = 0.005 (at node 3)
	maximum = 0.015 (at node 8)
Injected packet length average = 1
Accepted packet length average = 1
Total in-flight flits = 0 (0 measured)
latency change    = 0.0299087
throughput change = 0.0186335
Class 0:
Packet latency average = 19.3077
	minimum = 7
	maximum = 32
Network latency average = 19.3077
	minimum = 7
	maximum = 32
Slowest packet = 30229
Flit latency average = 19.3077
	minimum = 7
	maximum = 32
Slowest flit = 30229
Fragmentation average = 0
	minimum = 0
	maximum = 0
Injected packet rate average = 0.006625
	minimum = 0 (at node 3)
	maximum = 0.016 (at node 11)
Accepted packet rate average = 0.0065
	minimum = 0 (at node 8)
	maximum = 0.016 (at node 13)
Injected flit rate average = 0.006625
	minimum = 0 (at node 3)
	maximum = 0.016 (at node 11)
Accepted flit rate average= 0.0065
	minimum = 0 (at node 8)
	maximum = 0.016 (at node 13)
Injected packet length average = 1
Accepted packet length average = 1
Total in-flight flits = 1 (0 measured)
latency change    = 0.00593898
throughput change = 0.548077
Warmed up ...Time used is 1500 cycles
Class 0:
Packet latency average = 21.2658
	minimum = 7
	maximum = 37
Network latency average = 21.2658
	minimum = 7
	maximum = 37
Slowest packet = 30265
Flit latency average = 21.3375
	minimum = 7
	maximum = 37
Slowest flit = 30265
Fragmentation average = 0
	minimum = 0
	maximum = 0
Injected packet rate average = 0.01025
	minimum = 0.002 (at node 3)
	maximum = 0.016 (at node 15)
Accepted packet rate average = 0.01
	minimum = 0.002 (at node 5)
	maximum = 0.018 (at node 4)
Injected flit rate average = 0.01025
	minimum = 0.002 (at node 3)
	maximum = 0.016 (at node 15)
Accepted flit rate average= 0.01
	minimum = 0.002 (at node 5)
	maximum = 0.018 (at node 4)
Injected packet length average = 1
Accepted packet length average = 1
Total in-flight flits = 3 (3 measured)
latency change    = 0.0920788
throughput change = 0.35
Class 0:
Packet latency average = 20.6098
	minimum = 7
	maximum = 37
Network latency average = 20.6098
	minimum = 7
	maximum = 37
Slowest packet = 30265
Flit latency average = 20.6485
	minimum = 7
	maximum = 37
Slowest flit = 30265
Fragmentation average = 0
	minimum = 0
	maximum = 0
Injected packet rate average = 0.0104375
	minimum = 0.006 (at node 14)
	maximum = 0.016 (at node 9)
Accepted packet rate average = 0.0103125
	minimum = 0.007 (at node 6)
	maximum = 0.014 (at node 12)
Injected flit rate average = 0.0104375
	minimum = 0.006 (at node 14)
	maximum = 0.016 (at node 9)
Accepted flit rate average= 0.0103125
	minimum = 0.007 (at node 6)
	maximum = 0.014 (at node 12)
Injected packet length average = 1
Accepted packet length average = 1
Total in-flight flits = 3 (3 measured)
latency change    = 0.0318328
throughput change = 0.030303
Class 0:
Packet latency average = 20.5422
	minimum = 7
	maximum = 37
Network latency average = 20.5422
	minimum = 7
	maximum = 37
Slowest packet = 30265
Flit latency average = 20.568
	minimum = 7
	maximum = 37
Slowest flit = 30265
Fragmentation average = 0
	minimum = 0
	maximum = 0
Injected packet rate average = 0.0105833
	minimum = 0.00733333 (at node 3)
	maximum = 0.0166667 (at node 13)
Accepted packet rate average = 0.0104167
	minimum = 0.00666667 (at node 5)
	maximum = 0.0133333 (at node 12)
Injected flit rate average = 0.0105833
	minimum = 0.00733333 (at node 3)
	maximum = 0.0166667 (at node 13)
Accepted flit rate average= 0.0104167
	minimum = 0.00666667 (at node 5)
	maximum = 0.0133333 (at node 12)
Injected packet length average = 1
Accepted packet length average = 1
Total in-flight flits = 5 (5 measured)
latency change    = 0.00329018
throughput change = 0.01
Class 0:
Packet latency average = 20.1745
	minimum = 7
	maximum = 37
Network latency average = 20.1745
	minimum = 7
	maximum = 37
Slowest packet = 30265
Flit latency average = 20.1957
	minimum = 7
	maximum = 37
Slowest flit = 30265
Fragmentation average = 0
	minimum = 0
	maximum = 0
Injected packet rate average = 0.0100938
	minimum = 0.007 (at node 3)
	maximum = 0.015 (at node 13)
Accepted packet rate average = 0.0100625
	minimum = 0.0075 (at node 0)
	maximum = 0.013 (at node 12)
Injected flit rate average = 0.0100938
	minimum = 0.007 (at node 3)
	maximum = 0.015 (at node 13)
Accepted flit rate average= 0.0100625
	minimum = 0.0075 (at node 0)
	maximum = 0.013 (at node 12)
Injected packet length average = 1
Accepted packet length average = 1
Total in-flight flits = 2 (2 measured)
latency change    = 0.0182267
throughput change = 0.0351967
Draining all recorded packets ...
Draining remaining packets ...
Time taken is 3513 cycles
Class 0:
Packet latency average = 19.8506
	minimum = 7
	maximum = 37
Network latency average = 19.8506
	minimum = 7
	maximum = 37
Slowest packet = 30621
Flit latency average = 19.8506
	minimum = 7
	maximum = 37
Slowest flit = 30621
Fragmentation average = 0
	minimum = 0
	maximum = 0
Injected packet rate average = 0.011
	minimum = 0.006 (at node 1)
	maximum = 0.018 (at node 14)
Accepted packet rate average = 0.010875
	minimum = 0.006 (at node 11)
	maximum = 0.02 (at node 7)
Injected flit rate average = 0.011
	minimum = 0.006 (at node 1)
	maximum = 0.018 (at node 14)
Accepted flit rate average= 0.010875
	minimum = 0.006 (at node 11)
	maximum = 0.02 (at node 7)
Injected packet length average = 1
Accepted packet length average = 1
Total in-flight flits = 1 (0 measured)
latency change    = 1
throughput change = 1
Class 0:
Packet latency average = 19.7974
	minimum = 7
	maximum = 37
Network latency average = 19.7974
	minimum = 7
	maximum = 37
Slowest packet = 30621
Flit latency average = 19.7974
	minimum = 7
	maximum = 37
Slowest flit = 30621
Fragmentation average = 0
	minimum = 0
	maximum = 0
Injected packet rate average = 0.009625
	minimum = 0.005 (at node 13)
	maximum = 0.016 (at node 7)
Accepted packet rate average = 0.0095625
	minimum = 0.004 (at node 11)
	maximum = 0.013 (at node 3)
Injected flit rate average = 0.009625
	minimum = 0.005 (at node 13)
	maximum = 0.016 (at node 7)
Accepted flit rate average= 0.0095625
	minimum = 0.004 (at node 11)
	maximum = 0.013 (at node 3)
Injected packet length average = 1
Accepted packet length average = 1
Total in-flight flits = 1 (0 measured)
latency change    = 0.00268667
throughput change = 0.137255
Class 0:
Packet latency average = 20.6071
	minimum = 7
	maximum = 37
Network latency average = 20.6071
	minimum = 7
	maximum = 37
Slowest packet = 30760
Flit latency average = 20.6071
	minimum = 7
	maximum = 37
Slowest flit = 30760
Fragmentation average = 0
	minimum = 0
	maximum = 0
Injected packet rate average = 0.01075
	minimum = 0.006 (at node 6)
	maximum = 0.016 (at node 5)
Accepted packet rate average = 0.0105
	minimum = 0.002 (at node 0)
	maximum = 0.018 (at node 9)
Injected flit rate average = 0.01075
	minimum = 0.006 (at node 6)
	maximum = 0.016 (at node 5)
Accepted flit rate average= 0.0105
	minimum = 0.002 (at node 0)
	maximum = 0.018 (at node 9)
Injected packet length average = 1
Accepted packet length average = 1
Total in-flight flits = 3 (0 measured)
latency change    = 0.039295
throughput change = 0.0892857
Warmed up ...Time used is 1500 cycles
Class 0:
Packet latency average = 19.4286
	minimum = 7
	maximum = 32
Network latency average = 19.4286
	minimum = 7
	maximum = 32
Slowest packet = 30827
Flit latency average = 19.6027
	minimum = 7
	maximum = 32
Slowest flit = 30821
Fragmentation average = 0
	minimum = 0
	maximum = 0
Injected packet rate average = 0.009125
	minimum = 0.002 (at node 3)
	maximum = 0.016 (at node 14)
Accepted packet rate average = 0.009125
	minimum = 0.004 (at node 6)
	maximum = 0.016 (at node 15)
Injected flit rate average = 0.009125
	minimum = 0.002 (at node 3)
	maximum = 0.016 (at node 14)
Accepted flit rate average= 0.009125
	minimum = 0.004 (at node 6)
	maximum = 0.016 (at node 15)
Injected packet length average = 1
Accepted packet length average = 1
Total in-flight flits = 3 (3 measured)
latency change    = 0.0606618
throughput change = 0.150685
Class 0:
Packet latency average = 19.446
	minimum = 7
	maximum = 37
Network latency average = 19.446
	minimum = 7
	maximum = 37
Slowest packet = 30945
Flit latency average = 19.5352
	minimum = 7
	maximum = 37
Slowest flit = 30945
Fragmentation average = 0
	minimum = 0
	maximum = 0
Injected packet rate average = 0.0090625
	minimum = 0.003 (at node 3)
	maximum = 0.019 (at node 13)
Accepted packet rate average = 0.008875
	minimum = 0.005 (at node 6)
	maximum = 0.014 (at node 11)
Injected flit rate average = 0.0090625
	minimum = 0.003 (at node 3)
	maximum = 0.019 (at node 13)
Accepted flit rate average= 0.008875
	minimum = 0.005 (at node 6)
	maximum = 0.014 (at node 11)
Injected packet length average = 1
Accepted packet length average = 1
Total in-flight flits = 6 (6 measured)
latency change    = 0.000898473
throughput change = 0.028169
Class 0:
Packet latency average = 19.3829
	minimum = 7
	maximum = 37
Network latency average = 19.3829
	minimum = 7
	maximum = 37
Slowest packet = 30945
Flit latency average = 19.44
	minimum = 7
	maximum = 37
Slowest flit = 30945
Fragmentation average = 0
	minimum = 0
	maximum = 0
Injected packet rate average = 0.009375
	minimum = 0.006 (at node 4)
	maximum = 0.0173333 (at node 13)
Accepted packet rate average = 0.009375
	minimum = 0.00733333 (at node 5)
	maximum = 0.0133333 (at node 11)
Injected flit rate average = 0.009375
	minimum = 0.006 (at node 4)
	maximum = 0.0173333 (at node 13)
Accepted flit rate average= 0.009375
	minimum = 0.00733333 (at node 5)
	maximum = 0.0133333 (at node 11)
Injected packet length average = 1
Accepted packet length average = 1
Total in-flight flits = 3 (3 measured)
latency change    = 0.00325856
throughput change = 0.0533333
Class 0:
Packet latency average = 19.6525
	minimum = 7
	maximum = 37
Network latency average = 19.6525
	minimum = 7
	maximum = 37
Slowest packet = 30945
Flit latency average = 19.6916
	minimum = 7
	maximum = 37
Slowest flit = 30945
Fragmentation average = 0
	minimum = 0
	maximum = 0
Injected packet rate average = 0.009625
	minimum = 0.0065 (at node 4)
	maximum = 0.015 (at node 13)
Accepted packet rate average = 0.009625
	minimum = 0.007 (at node 9)
	maximum = 0.0145 (at node 11)
Injected flit rate average = 0.009625
	minimum = 0.0065 (at node 4)
	maximum = 0.015 (at node 13)
Accepted flit rate average= 0.009625
	minimum = 0.007 (at node 9)
	maximum = 0.0145 (at node 11)
Injected packet length average = 1
Accepted packet length average = 1
Total in-flight flits = 3 (3 measured)
latency change    = 0.0137172
throughput change = 0.025974
Class 0:
Packet latency average = 19.4949
	minimum = 7
	maximum = 37
Network latency average = 19.4949
	minimum = 7
	maximum = 37
Slowest packet = 30945
Flit latency average = 19.5264
	minimum = 7
	maximum = 37
Slowest flit = 30945
Fragmentation average = 0
	minimum = 0
	maximum = 0
Injected packet rate average = 0.0099
	minimum = 0.0072 (at node 4)
	maximum = 0.014 (at node 13)
Accepted packet rate average = 0.009925
	minimum = 0.0072 (at node 10)
	maximum = 0.0136 (at node 11)
Injected flit rate average = 0.0099
	minimum = 0.0072 (at node 4)
	maximum = 0.014 (at node 13)
Accepted flit rate average= 0.009925
	minimum = 0.0072 (at node 10)
	maximum = 0.0136 (at node 11)
Injected packet length average = 1
Accepted packet length average = 1
Total in-flight flits = 2 (2 measured)
latency change    = 0.00808083
throughput change = 0.0302267
Class 0:
Packet latency average = 19.5938
	minimum = 7
	maximum = 37
Network latency average = 19.5938
	minimum = 7
	maximum = 37
Slowest packet = 30945
Flit latency average = 19.619
	minimum = 7
	maximum = 37
Slowest flit = 30945
Fragmentation average = 0
	minimum = 0
	maximum = 0
Injected packet rate average = 0.0100208
	minimum = 0.007 (at node 12)
	maximum = 0.0126667 (at node 13)
Accepted packet rate average = 0.0100625
	minimum = 0.008 (at node 5)
	maximum = 0.0133333 (at node 11)
Injected flit rate average = 0.0100208
	minimum = 0.007 (at node 12)
	maximum = 0.0126667 (at node 13)
Accepted flit rate average= 0.0100625
	minimum = 0.008 (at node 5)
	maximum = 0.0133333 (at node 11)
Injected packet length average = 1
Accepted packet length average = 1
Total in-flight flits = 1 (1 measured)
latency change    = 0.00504376
throughput change = 0.0136646
Draining all recorded packets ...
Draining remaining packets ...
Time taken is 4510 cycles
====== Overall Traffic Statistics ======
====== Traffic class 0 ======
Packet latency average = 19.7225 (50 samples)
	minimum = 7 (50 samples)
	maximum = 38.36 (50 samples)
Network latency average = 19.7225 (50 samples)
	minimum = 7 (50 samples)
	maximum = 38.36 (50 samples)
Flit latency average = 19.7466 (50 samples)
	minimum = 7 (50 samples)
	maximum = 38.36 (50 samples)
Fragmentation average = 0 (50 samples)
	minimum = 0 (50 samples)
	maximum = 0 (50 samples)
Injected packet rate average = 0.0100152 (50 samples)
	minimum = 0.00662267 (50 samples)
	maximum = 0.0137139 (50 samples)
Accepted packet rate average = 0.0100015 (50 samples)
	minimum = 0.00640086 (50 samples)
	maximum = 0.0139447 (50 samples)
Injected flit rate average = 0.0100152 (50 samples)
	minimum = 0.00662267 (50 samples)
	maximum = 0.0137139 (50 samples)
Accepted flit rate average = 0.0100015 (50 samples)
	minimum = 0.00640086 (50 samples)
	maximum = 0.0139447 (50 samples)
Injected packet size average = 1 (50 samples)
Accepted packet size average = 1 (50 samples)
Hops average = 3.53446 (50 samples)
Total run time 3.56151
