BEGIN Configuration File: /tmp/tmpkfxfjxsi.cfg
topology = mesh;
k = 4;
n = 2;
routing_function = planar_adapt;
num_vcs = 4;
vc_buf_size = 4;
wait_for_tail_credit = 1;
vc_allocator = islip;
sw_allocator = islip;
alloc_iters = 1;
credit_delay = 2;
routing_delay = 1;
vc_alloc_delay = 1;
sw_alloc_delay = 1;
input_speedup = 2;
output_speedup = 1;
internal_speedup = 1.0;
traffic = uniform;
packet_size = 1;
sim_type = latency;
injection_rate = 0.01;
warmup_periods = 3;
sample_period = 500;
sim_count = 50;
seed = 0;
link_failures = 4;
fail_seed = 202;

END Configuration File: /tmp/tmpkfxfjxsi.cfg
failure at node 4, channel 2 (1/4)
failure at node 13, channel 0 (2/4)
failure at node 6, channel 1 (3/4)
failure at node 11, channel 3 (4/4)
Class 0:
Packet latency average = 22.6375
	minimum = 7
	maximum = 61
Network latency average = 22.6375
	minimum = 7
	maximum = 61
Slowest packet = 8
Flit latency average = 22.6375
	minimum = 7
	maximum = 61
Slowest flit = 8
Fragmentation average = 0
	minimum = 0
	maximum = 0
Injected packet rate average = 0.010375
	minimum = 0.004 (at node 5)
	maximum = 0.016 (at node 9)
Accepted packet rate average = 0.01
	minimum = 0.004 (at node 12)
	maximum = 0.02 (at node 2)
Injected flit rate average = 0.010375
	minimum = 0.004 (at node 5)
	maximum = 0.016 (at node 9)
Accepted flit rate average= 0.01
	minimum = 0.004 (at node 12)
	maximum = 0.02 (at node 2)
Injected packet length average = 1
Accepted packet length average = 1
Total in-flight flits = 3 (0 measured)
latency change    = 1
throughput change = 1
Class 0:
Packet latency average = 21.9216
	minimum = 7
	maximum = 61
Network latency average = 21.9216
	minimum = 7
	maximum = 61
Slowest packet = 8
Flit latency average = 21.9216
	minimum = 7
	maximum = 61
Slowest flit = 8
Fragmentation average = 0
	minimum = 0
	maximum = 0
Injected packet rate average = 0.00975
	minimum = 0.004 (at node 11)
	maximum = 0.014 (at node 13)
Accepted packet rate average = 0.0095625
	minimum = 0.004 (at node 11)
	maximum = 0.016 (at node 9)
Injected flit rate average = 0.00975
	minimum = 0.004 (at node 11)
	maximum = 0.014 (at node 13)
Accepted flit rate average= 0.0095625
	minimum = 0.004 (at node 11)
	maximum = 0.016 (at node 9)
Injected packet length average = 1
Accepted packet length average = 1
Total in-flight flits = 3 (0 measured)
latency change    = 0.0326588
throughput change = 0.0457516
Class 0:
Packet latency average = 20.9722
	minimum = 7
	maximum = 57
Network latency average = 20.9722
	minimum = 7
	maximum = 57
Slowest packet = 209
Flit latency average = 20.9722
	minimum = 7
	maximum = 57
Slowest flit = 209
Fragmentation average = 0
	minimum = 0
	maximum = 0
Injected packet rate average = 0.00925
	minimum = 0.002 (at node 11)
	maximum = 0.016 (at node 10)
Accepted packet rate average = 0.009
	minimum = 0.002 (at node 4)
	maximum = 0.016 (at node 10)
Injected flit rate average = 0.00925
	minimum = 0.002 (at node 11)
	maximum = 0.016 (at node 10)
Accepted flit rate average= 0.009
	minimum = 0.002 (at node 4)
	maximum = 0.016 (at node 10)
Injected packet length average = 1
Accepted packet length average = 1
Total in-flight flits = 5 (0 measured)
latency change    = 0.0452668
throughput change = 0.0625
Warmed up ...Time used is 1500 cycles
Class 0:
Packet latency average = 21.44
	minimum = 7
	maximum = 60
Network latency average = 21.44
	minimum = 7
	maximum = 60
Slowest packet = 245
Flit latency average = 21.6
	minimum = 7
	maximum = 60
Slowest flit = 245
Fragmentation average = 0
	minimum = 0
	maximum = 0
Injected packet rate average = 0.00975
	minimum = 0.004 (at node 3)
	maximum = 0.018 (at node 8)
Accepted packet rate average = 0.01
	minimum = 0.004 (at node 5)
	maximum = 0.016 (at node 15)
Injected flit rate average = 0.00975
	minimum = 0.004 (at node 3)
	maximum = 0.018 (at node 8)
Accepted flit rate average= 0.01
	minimum = 0.004 (at node 5)
	maximum = 0.016 (at node 15)
Injected packet length average = 1
Accepted packet length average = 1
Total in-flight flits = 3 (3 measured)
latency change    = 0.021818
throughput change = 0.1
Class 0:
Packet latency average = 21.2092
	minimum = 7
	maximum = 60
Network latency average = 21.2092
	minimum = 7
	maximum = 60
Slowest packet = 245
Flit latency average = 21.2975
	minimum = 7
	maximum = 60
Slowest flit = 245
Fragmentation average = 0
	minimum = 0
	maximum = 0
Injected packet rate average = 0.0096875
	minimum = 0.005 (at node 7)
	maximum = 0.016 (at node 13)
Accepted packet rate average = 0.009875
	minimum = 0.006 (at node 8)
	maximum = 0.017 (at node 10)
Injected flit rate average = 0.0096875
	minimum = 0.005 (at node 7)
	maximum = 0.016 (at node 13)
Accepted flit rate average= 0.009875
	minimum = 0.006 (at node 8)
	maximum = 0.017 (at node 10)
Injected packet length average = 1
Accepted packet length average = 1
Total in-flight flits = 2 (2 measured)
latency change    = 0.0108844
throughput change = 0.0126582
Class 0:
Packet latency average = 21.4492
	minimum = 7
	maximum = 60
Network latency average = 21.4492
	minimum = 7
	maximum = 60
Slowest packet = 245
Flit latency average = 21.5021
	minimum = 7
	maximum = 60
Slowest flit = 245
Fragmentation average = 0
	minimum = 0
	maximum = 0
Injected packet rate average = 0.00991667
	minimum = 0.00733333 (at node 7)
	maximum = 0.0133333 (at node 13)
Accepted packet rate average = 0.0100417
	minimum = 0.00666667 (at node 7)
	maximum = 0.0133333 (at node 10)
Injected flit rate average = 0.00991667
	minimum = 0.00733333 (at node 7)
	maximum = 0.0133333 (at node 13)
Accepted flit rate average= 0.0100417
	minimum = 0.00666667 (at node 7)
	maximum = 0.0133333 (at node 10)
Injected packet length average = 1
Accepted packet length average = 1
Total in-flight flits = 2 (2 measured)
latency change    = 0.0111894
throughput change = 0.0165975
Class 0:
Packet latency average = 21.9363
	minimum = 7
	maximum = 60
Network latency average = 21.9363
	minimum = 7
	maximum = 60
Slowest packet = 245
Flit latency average = 21.9687
	minimum = 7
	maximum = 60
Slowest flit = 245
Fragmentation average = 0
	minimum = 0
	maximum = 0
Injected packet rate average = 0.00990625
	minimum = 0.0075 (at node 1)
	maximum = 0.013 (at node 8)
Accepted packet rate average = 0.00996875
	minimum = 0.006 (at node 8)
	maximum = 0.0135 (at node 15)
Injected flit rate average = 0.00990625
	minimum = 0.0075 (at node 1)
	maximum = 0.013 (at node 8)
Accepted flit rate average= 0.00996875
	minimum = 0.006 (at node 8)
	maximum = 0.0135 (at node 15)
Injected packet length average = 1
Accepted packet length average = 1
Total in-flight flits = 3 (3 measured)
latency change    = 0.0222076
throughput change = 0.00731452
Draining all recorded packets ...
Draining remaining packets ...
Time taken is 3560 cycles
Class 0:
Packet latency average = 23.0312
	minimum = 7
	maximum = 57
Network latency average = 23.0312
	minimum = 7
	maximum = 57
Slowest packet = 565
Flit latency average = 23.0312
	minimum = 7
	maximum = 57
Slowest flit = 565
Fragmentation average = 0
	minimum = 0
	maximum = 0
Injected packet rate average = 0.008
	minimum = 0.002 (at node 5)
	maximum = 0.016 (at node 11)
Accepted packet rate average = 0.008
	minimum = 0.002 (at node 12)
	maximum = 0.016 (at node 1)
Injected flit rate average = 0.008
	minimum = 0.002 (at node 5)
	maximum = 0.016 (at node 11)
Accepted flit rate average= 0.008
	minimum = 0.002 (at node 12)
	maximum = 0.016 (at node 1)
Injected packet length average = 1
Accepted packet length average = 1
Total in-flight flits = 0 (0 measured)
latency change    = 1
throughput change = 1
Class 0:
Packet latency average = 21.1071
	minimum = 7
	maximum = 57
Network latency average = 21.1071
	minimum = 7
	maximum = 57
Slowest packet = 565
Flit latency average = 21.1071
	minimum = 7
	maximum = 57
Slowest flit = 565
Fragmentation average = 0
	minimum = 0
	maximum = 0
Injected packet rate average = 0.009
	minimum = 0.006 (at node 5)
	maximum = 0.017 (at node 10)
Accepted packet rate average = 0.00875
	minimum = 0.006 (at node 2)
	maximum = 0.014 (at node 6)
Injected flit rate average = 0.009
	minimum = 0.006 (at node 5)
	maximum = 0.017 (at node 10)
Accepted flit rate average= 0.00875
	minimum = 0.006 (at node 2)
	maximum = 0.014 (at node 6)
Injected packet length average = 1
Accepted packet length average = 1
Total in-flight flits = 4 (0 measured)
latency change    = 0.0911591
throughput change = 0.0857143
Class 0:
Packet latency average = 20.4706
	minimum = 7
	maximum = 52
Network latency average = 20.4706
	minimum = 7
	maximum = 52
Slowest packet = 708
Flit latency average = 20.4706
	minimum = 7
	maximum = 52
Slowest flit = 708
Fragmentation average = 0
	minimum = 0
	maximum = 0
Injected packet rate average = 0.008875
	minimum = 0.004 (at node 9)
	maximum = 0.014 (at node 6)
Accepted packet rate average = 0.0085
	minimum = 0 (at node 13)
	maximum = 0.022 (at node 6)
Injected flit rate average = 0.008875
	minimum = 0.004 (at node 9)
	maximum = 0.014 (at node 6)
Accepted flit rate average= 0.0085
	minimum = 0 (at node 13)
	maximum = 0.022 (at node 6)
Injected packet length average = 1
Accepted packet length average = 1
Total in-flight flits = 7 (0 measured)
latency change    = 0.0310961
throughput change = 0.0294118
Warmed up ...Time used is 1500 cycles
Class 0:
Packet latency average = 20.5584
	minimum = 7
	maximum = 54
Network latency average = 20.5584
	minimum = 7
	maximum = 54
Slowest packet = 788
Flit latency average = 20.9762
	minimum = 7
	maximum = 54
Slowest flit = 788
Fragmentation average = 0
	minimum = 0
	maximum = 0
Injected packet rate average = 0.01025
	minimum = 0.002 (at node 2)
	maximum = 0.02 (at node 15)
Accepted packet rate average = 0.0105
	minimum = 0.002 (at node 14)
	maximum = 0.02 (at node 12)
Injected flit rate average = 0.01025
	minimum = 0.002 (at node 2)
	maximum = 0.02 (at node 15)
Accepted flit rate average= 0.0105
	minimum = 0.002 (at node 14)
	maximum = 0.02 (at node 12)
Injected packet length average = 1
Accepted packet length average = 1
Total in-flight flits = 5 (5 measured)
latency change    = 0.00427335
throughput change = 0.190476
Class 0:
Packet latency average = 21.3506
	minimum = 7
	maximum = 54
Network latency average = 21.3506
	minimum = 7
	maximum = 54
Slowest packet = 788
Flit latency average = 21.5342
	minimum = 7
	maximum = 54
Slowest flit = 788
Fragmentation average = 0
	minimum = 0
	maximum = 0
Injected packet rate average = 0.009875
	minimum = 0.005 (at node 6)
	maximum = 0.015 (at node 3)
Accepted packet rate average = 0.0100625
	minimum = 0.003 (at node 3)
	maximum = 0.017 (at node 12)
Injected flit rate average = 0.009875
	minimum = 0.005 (at node 6)
	maximum = 0.015 (at node 3)
Accepted flit rate average= 0.0100625
	minimum = 0.003 (at node 3)
	maximum = 0.017 (at node 12)
Injected packet length average = 1
Accepted packet length average = 1
Total in-flight flits = 4 (4 measured)
latency change    = 0.0371046
throughput change = 0.0434783
Class 0:
Packet latency average = 21.925
	minimum = 7
	maximum = 54
Network latency average = 21.925
	minimum = 7
	maximum = 54
Slowest packet = 788
Flit latency average = 22.0283
	minimum = 7
	maximum = 54
Slowest flit = 788
Fragmentation average = 0
	minimum = 0
	maximum = 0
Injected packet rate average = 0.0102917
	minimum = 0.006 (at node 10)
	maximum = 0.018 (at node 3)
Accepted packet rate average = 0.0102917
	minimum = 0.004 (at node 0)
	maximum = 0.0153333 (at node 12)
Injected flit rate average = 0.0102917
	minimum = 0.006 (at node 10)
	maximum = 0.018 (at node 3)
Accepted flit rate average= 0.0102917
	minimum = 0.004 (at node 0)
	maximum = 0.0153333 (at node 12)
Injected packet length average = 1
Accepted packet length average = 1
Total in-flight flits = 7 (7 measured)
latency change    = 0.0261962
throughput change = 0.0222672
Class 0:
Packet latency average = 22.1704
	minimum = 7
	maximum = 54
Network latency average = 22.1704
	minimum = 7
	maximum = 54
Slowest packet = 788
Flit latency average = 22.2453
	minimum = 7
	maximum = 54
Slowest flit = 788
Fragmentation average = 0
	minimum = 0
	maximum = 0
Injected packet rate average = 0.00996875
	minimum = 0.0055 (at node 2)
	maximum = 0.0165 (at node 13)
Accepted packet rate average = 0.0099375
	minimum = 0.005 (at node 0)
	maximum = 0.0135 (at node 8)
Injected flit rate average = 0.00996875
	minimum = 0.0055 (at node 2)
	maximum = 0.0165 (at node 13)
Accepted flit rate average= 0.0099375
	minimum = 0.005 (at node 0)
	maximum = 0.0135 (at node 8)
Injected packet length average = 1
Accepted packet length average = 1
Total in-flight flits = 8 (8 measured)
latency change    = 0.0110696
throughput change = 0.0356394
Draining all recorded packets ...
Draining remaining packets ...
Time taken is 3537 cycles
Class 0:
Packet latency average = 21.0909
	minimum = 7
	maximum = 52
Network latency average = 21.0909
	minimum = 7
	maximum = 52
Slowest packet = 1153
Flit latency average = 21.0909
	minimum = 7
	maximum = 52
Slowest flit = 1153
Fragmentation average = 0
	minimum = 0
	maximum = 0
Injected packet rate average = 0.010125
	minimum = 0.004 (at node 8)
	maximum = 0.016 (at node 1)
Accepted packet rate average = 0.009625
	minimum = 0.002 (at node 3)
	maximum = 0.016 (at node 11)
Injected flit rate average = 0.010125
	minimum = 0.004 (at node 8)
	maximum = 0.016 (at node 1)
Accepted flit rate average= 0.009625
	minimum = 0.002 (at node 3)
	maximum = 0.016 (at node 11)
Injected packet length average = 1
Accepted packet length average = 1
Total in-flight flits = 4 (0 measured)
latency change    = 1
throughput change = 1
Class 0:
Packet latency average = 22.2471
	minimum = 7
	maximum = 59
Network latency average = 22.2471
	minimum = 7
	maximum = 59
Slowest packet = 1212
Flit latency average = 22.2471
	minimum = 7
	maximum = 59
Slowest flit = 1212
Fragmentation average = 0
	minimum = 0
	maximum = 0
Injected packet rate average = 0.0108125
	minimum = 0.006 (at node 8)
	maximum = 0.017 (at node 1)
Accepted packet rate average = 0.010625
	minimum = 0.007 (at node 13)
	maximum = 0.017 (at node 11)
Injected flit rate average = 0.0108125
	minimum = 0.006 (at node 8)
	maximum = 0.017 (at node 1)
Accepted flit rate average= 0.010625
	minimum = 0.007 (at node 13)
	maximum = 0.017 (at node 11)
Injected packet length average = 1
Accepted packet length average = 1
Total in-flight flits = 3 (0 measured)
latency change    = 0.0519687
throughput change = 0.0941176
Class 0:
Packet latency average = 21.28
	minimum = 7
	maximum = 47
Network latency average = 21.28
	minimum = 7
	maximum = 47
Slowest packet = 1270
Flit latency average = 21.28
	minimum = 7
	maximum = 47
Slowest flit = 1270
Fragmentation average = 0
	minimum = 0
	maximum = 0
Injected packet rate average = 0.012625
	minimum = 0.006 (at node 8)
	maximum = 0.018 (at node 0)
Accepted packet rate average = 0.0125
	minimum = 0.006 (at node 2)
	maximum = 0.02 (at node 15)
Injected flit rate average = 0.012625
	minimum = 0.006 (at node 8)
	maximum = 0.018 (at node 0)
Accepted flit rate average= 0.0125
	minimum = 0.006 (at node 2)
	maximum = 0.02 (at node 15)
Injected packet length average = 1
Accepted packet length average = 1
Total in-flight flits = 4 (0 measured)
latency change    = 0.0454445
throughput change = 0.15
Warmed up ...Time used is 1500 cycles
Class 0:
Packet latency average = 21
	minimum = 7
	maximum = 52
Network latency average = 21
	minimum = 7
	maximum = 52
Slowest packet = 1409
Flit latency average = 21.1494
	minimum = 7
	maximum = 52
Slowest flit = 1409
Fragmentation average = 0
	minimum = 0
	maximum = 0
Injected packet rate average = 0.010625
	minimum = 0.004 (at node 5)
	maximum = 0.016 (at node 1)
Accepted packet rate average = 0.010875
	minimum = 0 (at node 3)
	maximum = 0.02 (at node 8)
Injected flit rate average = 0.010625
	minimum = 0.004 (at node 5)
	maximum = 0.016 (at node 1)
Accepted flit rate average= 0.010875
	minimum = 0 (at node 3)
	maximum = 0.02 (at node 8)
Injected packet length average = 1
Accepted packet length average = 1
Total in-flight flits = 2 (2 measured)
latency change    = 0.0133333
throughput change = 0.149425
Class 0:
Packet latency average = 22.2857
	minimum = 7
	maximum = 64
Network latency average = 22.2857
	minimum = 7
	maximum = 64
Slowest packet = 1481
Flit latency average = 22.3333
	minimum = 7
	maximum = 64
Slowest flit = 1481
Fragmentation average = 0
	minimum = 0
	maximum = 0
Injected packet rate average = 0.0100625
	minimum = 0.003 (at node 5)
	maximum = 0.016 (at node 7)
Accepted packet rate average = 0.0103125
	minimum = 0.006 (at node 3)
	maximum = 0.017 (at node 5)
Injected flit rate average = 0.0100625
	minimum = 0.003 (at node 5)
	maximum = 0.016 (at node 7)
Accepted flit rate average= 0.0103125
	minimum = 0.006 (at node 3)
	maximum = 0.017 (at node 5)
Injected packet length average = 1
Accepted packet length average = 1
Total in-flight flits = 0 (0 measured)
latency change    = 0.0576923
throughput change = 0.0545455
Class 0:
Packet latency average = 22.4711
	minimum = 7
	maximum = 64
Network latency average = 22.4711
	minimum = 7
	maximum = 64
Slowest packet = 1481
Flit latency average = 22.5022
	minimum = 7
	maximum = 64
Slowest flit = 1481
Fragmentation average = 0
	minimum = 0
	maximum = 0
Injected packet rate average = 0.00954167
	minimum = 0.004 (at node 5)
	maximum = 0.0133333 (at node 1)
Accepted packet rate average = 0.00954167
	minimum = 0.00533333 (at node 4)
	maximum = 0.014 (at node 5)
Injected flit rate average = 0.00954167
	minimum = 0.004 (at node 5)
	maximum = 0.0133333 (at node 1)
Accepted flit rate average= 0.00954167
	minimum = 0.00533333 (at node 4)
	maximum = 0.014 (at node 5)
Injected packet length average = 1
Accepted packet length average = 1
Total in-flight flits = 4 (4 measured)
latency change    = 0.00825045
throughput change = 0.080786
Class 0:
Packet latency average = 22.1485
	minimum = 7
	maximum = 64
Network latency average = 22.1485
	minimum = 7
	maximum = 64
Slowest packet = 1481
Flit latency average = 22.1759
	minimum = 7
	maximum = 64
Slowest flit = 1481
Fragmentation average = 0
	minimum = 0
	maximum = 0
Injected packet rate average = 0.00965625
	minimum = 0.006 (at node 2)
	maximum = 0.013 (at node 1)
Accepted packet rate average = 0.00959375
	minimum = 0.0065 (at node 4)
	maximum = 0.0135 (at node 8)
Injected flit rate average = 0.00965625
	minimum = 0.006 (at node 2)
	maximum = 0.013 (at node 1)
Accepted flit rate average= 0.00959375
	minimum = 0.0065 (at node 4)
	maximum = 0.0135 (at node 8)
Injected packet length average = 1
Accepted packet length average = 1
Total in-flight flits = 6 (6 measured)
latency change    = 0.0145651
throughput change = 0.00542888
Class 0:
Packet latency average = 22.1111
	minimum = 7
	maximum = 64
Network latency average = 22.1111
	minimum = 7
	maximum = 64
Slowest packet = 1481
Flit latency average = 22.133
	minimum = 7
	maximum = 64
Slowest flit = 1481
Fragmentation average = 0
	minimum = 0
	maximum = 0
Injected packet rate average = 0.009725
	minimum = 0.0064 (at node 2)
	maximum = 0.0136 (at node 1)
Accepted packet rate average = 0.009775
	minimum = 0.0064 (at node 7)
	maximum = 0.0136 (at node 8)
Injected flit rate average = 0.009725
	minimum = 0.0064 (at node 2)
	maximum = 0.0136 (at node 1)
Accepted flit rate average= 0.009775
	minimum = 0.0064 (at node 7)
	maximum = 0.0136 (at node 8)
Injected packet length average = 1
Accepted packet length average = 1
Total in-flight flits = 2 (2 measured)
latency change    = 0.00169163
throughput change = 0.0185422
Class 0:
Packet latency average = 21.9263
	minimum = 7
	maximum = 64
Network latency average = 21.9263
	minimum = 7
	maximum = 64
Slowest packet = 1481
Flit latency average = 21.9457
	minimum = 7
	maximum = 64
Slowest flit = 1481
Fragmentation average = 0
	minimum = 0
	maximum = 0
Injected packet rate average = 0.00991667
	minimum = 0.00733333 (at node 5)
	maximum = 0.013 (at node 1)
Accepted packet rate average = 0.00997917
	minimum = 0.00633333 (at node 7)
	maximum = 0.0143333 (at node 8)
Injected flit rate average = 0.00991667
	minimum = 0.00733333 (at node 5)
	maximum = 0.013 (at node 1)
Accepted flit rate average= 0.00997917
	minimum = 0.00633333 (at node 7)
	maximum = 0.0143333 (at node 8)
Injected packet length average = 1
Accepted packet length average = 1
Total in-flight flits = 1 (1 measured)
latency change    = 0.00842802
throughput change = 0.0204593
Draining all recorded packets ...
Draining remaining packets ...
Time taken is 4543 cycles
Class 0:
Packet latency average = 23.1446
	minimum = 7
	maximum = 61
Network latency average = 23.1446
	minimum = 7
	maximum = 61
Slowest packet = 1853
Flit latency average = 23.1446
	minimum = 7
	maximum = 61
Slowest flit = 1853
Fragmentation average = 0
	minimum = 0
	maximum = 0
Injected packet rate average = 0.01075
	minimum = 0.006 (at node 3)
	maximum = 0.02 (at node 7)
Accepted packet rate average = 0.010375
	minimum = 0.002 (at node 5)
	maximum = 0.02 (at node 8)
Injected flit rate average = 0.01075
	minimum = 0.006 (at node 3)
	maximum = 0.02 (at node 7)
Accepted flit rate average= 0.010375
	minimum = 0.002 (at node 5)
	maximum = 0.02 (at node 8)
Injected packet length average = 1
Accepted packet length average = 1
Total in-flight flits = 3 (0 measured)
latency change    = 1
throughput change = 1
Class 0:
Packet latency average = 22.2398
	minimum = 7
	maximum = 61
Network latency average = 22.2398
	minimum = 7
	maximum = 61
Slowest packet = 1853
Flit latency average = 22.2398
	minimum = 7
	maximum = 61
Slowest flit = 1853
Fragmentation average = 0
	minimum = 0
	maximum = 0
Injected packet rate average = 0.0108125
	minimum = 0.006 (at node 9)
	maximum = 0.018 (at node 7)
Accepted packet rate average = 0.0106875
	minimum = 0.007 (at node 5)
	maximum = 0.015 (at node 7)
Injected flit rate average = 0.0108125
	minimum = 0.006 (at node 9)
	maximum = 0.018 (at node 7)
Accepted flit rate average= 0.0106875
	minimum = 0.007 (at node 5)
	maximum = 0.015 (at node 7)
Injected packet length average = 1
Accepted packet length average = 1
Total in-flight flits = 2 (0 measured)
latency change    = 0.0406844
throughput change = 0.0292398
Class 0:
Packet latency average = 23.481
	minimum = 7
	maximum = 52
Network latency average = 23.481
	minimum = 7
	maximum = 52
Slowest packet = 2083
Flit latency average = 23.481
	minimum = 7
	maximum = 52
Slowest flit = 2083
Fragmentation average = 0
	minimum = 0
	maximum = 0
Injected packet rate average = 0.0105
	minimum = 0.008 (at node 0)
	maximum = 0.018 (at node 6)
Accepted packet rate average = 0.009875
	minimum = 0 (at node 6)
	maximum = 0.016 (at node 3)
Injected flit rate average = 0.0105
	minimum = 0.008 (at node 0)
	maximum = 0.018 (at node 6)
Accepted flit rate average= 0.009875
	minimum = 0 (at node 6)
	maximum = 0.016 (at node 3)
Injected packet length average = 1
Accepted packet length average = 1
Total in-flight flits = 7 (0 measured)
latency change    = 0.0528617
throughput change = 0.0822785
Warmed up ...Time used is 1500 cycles
Class 0:
Packet latency average = 19.8313
	minimum = 7
	maximum = 52
Network latency average = 19.8313
	minimum = 7
	maximum = 52
Slowest packet = 2123
Flit latency average = 20.3889
	minimum = 7
	maximum = 52
Slowest flit = 2096
Fragmentation average = 0
	minimum = 0
	maximum = 0
Injected packet rate average = 0.010875
	minimum = 0.002 (at node 14)
	maximum = 0.018 (at node 10)
Accepted packet rate average = 0.01125
	minimum = 0.004 (at node 1)
	maximum = 0.022 (at node 13)
Injected flit rate average = 0.010875
	minimum = 0.002 (at node 14)
	maximum = 0.018 (at node 10)
Accepted flit rate average= 0.01125
	minimum = 0.004 (at node 1)
	maximum = 0.022 (at node 13)
Injected packet length average = 1
Accepted packet length average = 1
Total in-flight flits = 4 (4 measured)
latency change    = 0.184036
throughput change = 0.122222
Class 0:
Packet latency average = 21.5333
	minimum = 7
	maximum = 52
Network latency average = 21.5333
	minimum = 7
	maximum = 52
Slowest packet = 2123
Flit latency average = 21.7771
	minimum = 7
	maximum = 52
Slowest flit = 2096
Fragmentation average = 0
	minimum = 0
	maximum = 0
Injected packet rate average = 0.0095625
	minimum = 0.005 (at node 14)
	maximum = 0.013 (at node 7)
Accepted packet rate average = 0.0098125
	minimum = 0.004 (at node 6)
	maximum = 0.015 (at node 3)
Injected flit rate average = 0.0095625
	minimum = 0.005 (at node 14)
	maximum = 0.013 (at node 7)
Accepted flit rate average= 0.0098125
	minimum = 0.004 (at node 6)
	maximum = 0.015 (at node 3)
Injected packet length average = 1
Accepted packet length average = 1
Total in-flight flits = 3 (3 measured)
latency change    = 0.0790406
throughput change = 0.146497
Class 0:
Packet latency average = 22.2087
	minimum = 7
	maximum = 64
Network latency average = 22.2087
	minimum = 7
	maximum = 64
Slowest packet = 2245
Flit latency average = 22.3502
	minimum = 7
	maximum = 64
Slowest flit = 2245
Fragmentation average = 0
	minimum = 0
	maximum = 0
Injected packet rate average = 0.00966667
	minimum = 0.00533333 (at node 14)
	maximum = 0.0133333 (at node 10)
Accepted packet rate average = 0.009875
	minimum = 0.00466667 (at node 10)
	maximum = 0.016 (at node 3)
Injected flit rate average = 0.00966667
	minimum = 0.00533333 (at node 14)
	maximum = 0.0133333 (at node 10)
Accepted flit rate average= 0.009875
	minimum = 0.00466667 (at node 10)
	maximum = 0.016 (at node 3)
Injected packet length average = 1
Accepted packet length average = 1
Total in-flight flits = 2 (2 measured)
latency change    = 0.0304098
throughput change = 0.00632911
Class 0:
Packet latency average = 21.9703
	minimum = 7
	maximum = 64
Network latency average = 21.9703
	minimum = 7
	maximum = 64
Slowest packet = 2245
Flit latency average = 22.0839
	minimum = 7
	maximum = 64
Slowest flit = 2245
Fragmentation average = 0
	minimum = 0
	maximum = 0
Injected packet rate average = 0.00953125
	minimum = 0.006 (at node 14)
	maximum = 0.0125 (at node 7)
Accepted packet rate average = 0.0096875
	minimum = 0.005 (at node 8)
	maximum = 0.0155 (at node 3)
Injected flit rate average = 0.00953125
	minimum = 0.006 (at node 14)
	maximum = 0.0125 (at node 7)
Accepted flit rate average= 0.0096875
	minimum = 0.005 (at node 8)
	maximum = 0.0155 (at node 3)
Injected packet length average = 1
Accepted packet length average = 1
Total in-flight flits = 2 (2 measured)
latency change    = 0.010851
throughput change = 0.0193548
Class 0:
Packet latency average = 21.829
	minimum = 7
	maximum = 64
Network latency average = 21.829
	minimum = 7
	maximum = 64
Slowest packet = 2245
Flit latency average = 21.9211
	minimum = 7
	maximum = 64
Slowest flit = 2245
Fragmentation average = 0
	minimum = 0
	maximum = 0
Injected packet rate average = 0.009675
	minimum = 0.006 (at node 3)
	maximum = 0.0124 (at node 7)
Accepted packet rate average = 0.009825
	minimum = 0.006 (at node 6)
	maximum = 0.0144 (at node 11)
Injected flit rate average = 0.009675
	minimum = 0.006 (at node 3)
	maximum = 0.0124 (at node 7)
Accepted flit rate average= 0.009825
	minimum = 0.006 (at node 6)
	maximum = 0.0144 (at node 11)
Injected packet length average = 1
Accepted packet length average = 1
Total in-flight flits = 1 (1 measured)
latency change    = 0.00647219
throughput change = 0.0139949
Draining all recorded packets ...
Draining remaining packets ...
Time taken is 4005 cycles
Class 0:
Packet latency average = 22.622
	minimum = 7
	maximum = 52
Network latency average = 22.622
	minimum = 7
	maximum = 52
Slowest packet = 2546
Flit latency average = 22.622
	minimum = 7
	maximum = 52
Slowest flit = 2546
Fragmentation average = 0
	minimum = 0
	maximum = 0
Injected packet rate average = 0.010375
	minimum = 0.002 (at node 0)
	maximum = 0.016 (at node 8)
Accepted packet rate average = 0.01025
	minimum = 0.002 (at node 14)
	maximum = 0.018 (at node 12)
Injected flit rate average = 0.010375
	minimum = 0.002 (at node 0)
	maximum = 0.016 (at node 8)
Accepted flit rate average= 0.01025
	minimum = 0.002 (at node 14)
	maximum = 0.018 (at node 12)
Injected packet length average = 1
Accepted packet length average = 1
Total in-flight flits = 1 (0 measured)
latency change    = 1
throughput change = 1
Class 0:
Packet latency average = 23.5652
	minimum = 7
	maximum = 52
Network latency average = 23.5652
	minimum = 7
	maximum = 52
Slowest packet = 2546
Flit latency average = 23.5652
	minimum = 7
	maximum = 52
Slowest flit = 2546
Fragmentation average = 0
	minimum = 0
	maximum = 0
Injected packet rate average = 0.0103125
	minimum = 0.008 (at node 0)
	maximum = 0.013 (at node 4)
Accepted packet rate average = 0.0100625
	minimum = 0.004 (at node 14)
	maximum = 0.014 (at node 8)
Injected flit rate average = 0.0103125
	minimum = 0.008 (at node 0)
	maximum = 0.013 (at node 4)
Accepted flit rate average= 0.0100625
	minimum = 0.004 (at node 14)
	maximum = 0.014 (at node 8)
Injected packet length average = 1
Accepted packet length average = 1
Total in-flight flits = 4 (0 measured)
latency change    = 0.0400279
throughput change = 0.0186335
Class 0:
Packet latency average = 23.5904
	minimum = 7
	maximum = 52
Network latency average = 23.5904
	minimum = 7
	maximum = 52
Slowest packet = 2654
Flit latency average = 23.5904
	minimum = 7
	maximum = 52
Slowest flit = 2654
Fragmentation average = 0
	minimum = 0
	maximum = 0
Injected packet rate average = 0.010375
	minimum = 0.004 (at node 4)
	maximum = 0.022 (at node 11)
Accepted packet rate average = 0.010375
	minimum = 0.004 (at node 1)
	maximum = 0.022 (at node 7)
Injected flit rate average = 0.010375
	minimum = 0.004 (at node 4)
	maximum = 0.022 (at node 11)
Accepted flit rate average= 0.010375
	minimum = 0.004 (at node 1)
	maximum = 0.022 (at node 7)
Injected packet length average = 1
Accepted packet length average = 1
Total in-flight flits = 4 (0 measured)
latency change    = 0.00106586
throughput change = 0.0301205
Warmed up ...Time used is 1500 cycles
Class 0:
Packet latency average = 20.5932
	minimum = 7
	maximum = 52
Network latency average = 20.5932
	minimum = 7
	maximum = 52
Slowest packet = 2738
Flit latency average = 20.9206
	minimum = 7
	maximum = 52
Slowest flit = 2738
Fragmentation average = 0
	minimum = 0
	maximum = 0
Injected packet rate average = 0.007625
	minimum = 0.002 (at node 9)
	maximum = 0.014 (at node 11)
Accepted packet rate average = 0.007875
	minimum = 0.002 (at node 15)
	maximum = 0.014 (at node 7)
Injected flit rate average = 0.007625
	minimum = 0.002 (at node 9)
	maximum = 0.014 (at node 11)
Accepted flit rate average= 0.007875
	minimum = 0.002 (at node 15)
	maximum = 0.014 (at node 7)
Injected packet length average = 1
Accepted packet length average = 1
Total in-flight flits = 2 (2 measured)
latency change    = 0.14554
throughput change = 0.31746
Class 0:
Packet latency average = 21.4058
	minimum = 7
	maximum = 58
Network latency average = 21.4058
	minimum = 7
	maximum = 58
Slowest packet = 2824
Flit latency average = 21.5282
	minimum = 7
	maximum = 58
Slowest flit = 2824
Fragmentation average = 0
	minimum = 0
	maximum = 0
Injected packet rate average = 0.00875
	minimum = 0.004 (at node 2)
	maximum = 0.014 (at node 11)
Accepted packet rate average = 0.008875
	minimum = 0.004 (at node 1)
	maximum = 0.015 (at node 14)
Injected flit rate average = 0.00875
	minimum = 0.004 (at node 2)
	maximum = 0.014 (at node 11)
Accepted flit rate average= 0.008875
	minimum = 0.004 (at node 1)
	maximum = 0.015 (at node 14)
Injected packet length average = 1
Accepted packet length average = 1
Total in-flight flits = 2 (2 measured)
latency change    = 0.0379606
throughput change = 0.112676
Class 0:
Packet latency average = 21.6607
	minimum = 7
	maximum = 58
Network latency average = 21.6607
	minimum = 7
	maximum = 58
Slowest packet = 2824
Flit latency average = 21.7325
	minimum = 7
	maximum = 58
Slowest flit = 2824
Fragmentation average = 0
	minimum = 0
	maximum = 0
Injected packet rate average = 0.00945833
	minimum = 0.004 (at node 9)
	maximum = 0.014 (at node 11)
Accepted packet rate average = 0.0095
	minimum = 0.006 (at node 1)
	maximum = 0.014 (at node 2)
Injected flit rate average = 0.00945833
	minimum = 0.004 (at node 9)
	maximum = 0.014 (at node 11)
Accepted flit rate average= 0.0095
	minimum = 0.006 (at node 1)
	maximum = 0.014 (at node 2)
Injected packet length average = 1
Accepted packet length average = 1
Total in-flight flits = 3 (3 measured)
latency change    = 0.0117686
throughput change = 0.0657895
Class 0:
Packet latency average = 21.7663
	minimum = 7
	maximum = 58
Network latency average = 21.7663
	minimum = 7
	maximum = 58
Slowest packet = 2824
Flit latency average = 21.8203
	minimum = 7
	maximum = 58
Slowest flit = 2824
Fragmentation average = 0
	minimum = 0
	maximum = 0
Injected packet rate average = 0.009125
	minimum = 0.003 (at node 9)
	maximum = 0.0145 (at node 11)
Accepted packet rate average = 0.00921875
	minimum = 0.005 (at node 10)
	maximum = 0.015 (at node 2)
Injected flit rate average = 0.009125
	minimum = 0.003 (at node 9)
	maximum = 0.0145 (at node 11)
Accepted flit rate average= 0.00921875
	minimum = 0.005 (at node 10)
	maximum = 0.015 (at node 2)
Injected packet length average = 1
Accepted packet length average = 1
Total in-flight flits = 1 (1 measured)
latency change    = 0.00485193
throughput change = 0.0305085
Class 0:
Packet latency average = 21.8033
	minimum = 7
	maximum = 58
Network latency average = 21.8033
	minimum = 7
	maximum = 58
Slowest packet = 2824
Flit latency average = 21.8459
	minimum = 7
	maximum = 58
Slowest flit = 2824
Fragmentation average = 0
	minimum = 0
	maximum = 0
Injected packet rate average = 0.0092
	minimum = 0.0044 (at node 9)
	maximum = 0.0136 (at node 11)
Accepted packet rate average = 0.00925
	minimum = 0.0056 (at node 10)
	maximum = 0.014 (at node 2)
Injected flit rate average = 0.0092
	minimum = 0.0044 (at node 9)
	maximum = 0.0136 (at node 11)
Accepted flit rate average= 0.00925
	minimum = 0.0056 (at node 10)
	maximum = 0.014 (at node 2)
Injected packet length average = 1
Accepted packet length average = 1
Total in-flight flits = 2 (2 measured)
latency change    = 0.00169496
throughput change = 0.00337838
Class 0:
Packet latency average = 21.6259
	minimum = 7
	maximum = 58
Network latency average = 21.6259
	minimum = 7
	maximum = 58
Slowest packet = 2824
Flit latency average = 21.6636
	minimum = 7
	maximum = 58
Slowest flit = 2824
Fragmentation average = 0
	minimum = 0
	maximum = 0
Injected packet rate average = 0.00908333
	minimum = 0.00466667 (at node 9)
	maximum = 0.0136667 (at node 11)
Accepted packet rate average = 0.00910417
	minimum = 0.00566667 (at node 10)
	maximum = 0.0133333 (at node 2)
Injected flit rate average = 0.00908333
	minimum = 0.00466667 (at node 9)
	maximum = 0.0136667 (at node 11)
Accepted flit rate average= 0.00910417
	minimum = 0.00566667 (at node 10)
	maximum = 0.0133333 (at node 2)
Injected packet length average = 1
Accepted packet length average = 1
Total in-flight flits = 3 (3 measured)
latency change    = 0.00820372
throughput change = 0.0160183
Draining all recorded packets ...
Draining remaining packets ...
Time taken is 4516 cycles
Class 0:
Packet latency average = 21.4881
	minimum = 7
	maximum = 52
Network latency average = 21.4881
	minimum = 7
	maximum = 52
Slowest packet = 3204
Flit latency average = 21.4881
	minimum = 7
	maximum = 52
Slowest flit = 3204
Fragmentation average = 0
	minimum = 0
	maximum = 0
Injected packet rate average = 0.010625
	minimum = 0.004 (at node 6)
	maximum = 0.022 (at node 10)
Accepted packet rate average = 0.0105
	minimum = 0.002 (at node 13)
	maximum = 0.018 (at node 5)
Injected flit rate average = 0.010625
	minimum = 0.004 (at node 6)
	maximum = 0.022 (at node 10)
Accepted flit rate average= 0.0105
	minimum = 0.002 (at node 13)
	maximum = 0.018 (at node 5)
Injected packet length average = 1
Accepted packet length average = 1
Total in-flight flits = 1 (0 measured)
latency change    = 1
throughput change = 1
Class 0:
Packet latency average = 20.9937
	minimum = 7
	maximum = 52
Network latency average = 20.9937
	minimum = 7
	maximum = 52
Slowest packet = 3204
Flit latency average = 20.9937
	minimum = 7
	maximum = 52
Slowest flit = 3204
Fragmentation average = 0
	minimum = 0
	maximum = 0
Injected packet rate average = 0.0101875
	minimum = 0.005 (at node 5)
	maximum = 0.016 (at node 10)
Accepted packet rate average = 0.009875
	minimum = 0.006 (at node 10)
	maximum = 0.013 (at node 6)
Injected flit rate average = 0.0101875
	minimum = 0.005 (at node 5)
	maximum = 0.016 (at node 10)
Accepted flit rate average= 0.009875
	minimum = 0.006 (at node 10)
	maximum = 0.013 (at node 6)
Injected packet length average = 1
Accepted packet length average = 1
Total in-flight flits = 5 (0 measured)
latency change    = 0.0235511
throughput change = 0.0632911
Class 0:
Packet latency average = 21.5618
	minimum = 7
	maximum = 49
Network latency average = 21.5618
	minimum = 7
	maximum = 49
Slowest packet = 3370
Flit latency average = 21.5618
	minimum = 7
	maximum = 49
Slowest flit = 3370
Fragmentation average = 0
	minimum = 0
	maximum = 0
Injected packet rate average = 0.0105
	minimum = 0.004 (at node 2)
	maximum = 0.028 (at node 12)
Accepted packet rate average = 0.011125
	minimum = 0.002 (at node 3)
	maximum = 0.018 (at node 7)
Injected flit rate average = 0.0105
	minimum = 0.004 (at node 2)
	maximum = 0.028 (at node 12)
Accepted flit rate average= 0.011125
	minimum = 0.002 (at node 3)
	maximum = 0.018 (at node 7)
Injected packet length average = 1
Accepted packet length average = 1
Total in-flight flits = 0 (0 measured)
latency change    = 0.0263488
throughput change = 0.11236
Warmed up ...Time used is 1500 cycles
Class 0:
Packet latency average = 21.6154
	minimum = 7
	maximum = 52
Network latency average = 21.6154
	minimum = 7
	maximum = 52
Slowest packet = 3447
Flit latency average = 21.6154
	minimum = 7
	maximum = 52
Slowest flit = 3447
Fragmentation average = 0
	minimum = 0
	maximum = 0
Injected packet rate average = 0.011625
	minimum = 0.004 (at node 1)
	maximum = 0.02 (at node 0)
Accepted packet rate average = 0.011375
	minimum = 0 (at node 4)
	maximum = 0.02 (at node 8)
Injected flit rate average = 0.011625
	minimum = 0.004 (at node 1)
	maximum = 0.02 (at node 0)
Accepted flit rate average= 0.011375
	minimum = 0 (at node 4)
	maximum = 0.02 (at node 8)
Injected packet length average = 1
Accepted packet length average = 1
Total in-flight flits = 2 (2 measured)
latency change    = 0.00247911
throughput change = 0.021978
Class 0:
Packet latency average = 20.7
	minimum = 7
	maximum = 56
Network latency average = 20.7
	minimum = 7
	maximum = 56
Slowest packet = 3527
Flit latency average = 20.7
	minimum = 7
	maximum = 56
Slowest flit = 3527
Fragmentation average = 0
	minimum = 0
	maximum = 0
Injected packet rate average = 0.010625
	minimum = 0.004 (at node 12)
	maximum = 0.021 (at node 14)
Accepted packet rate average = 0.010625
	minimum = 0.006 (at node 5)
	maximum = 0.016 (at node 2)
Injected flit rate average = 0.010625
	minimum = 0.004 (at node 12)
	maximum = 0.021 (at node 14)
Accepted flit rate average= 0.010625
	minimum = 0.006 (at node 5)
	maximum = 0.016 (at node 2)
Injected packet length average = 1
Accepted packet length average = 1
Total in-flight flits = 0 (0 measured)
latency change    = 0.0442215
throughput change = 0.0705882
Class 0:
Packet latency average = 20.6463
	minimum = 7
	maximum = 56
Network latency average = 20.6463
	minimum = 7
	maximum = 56
Slowest packet = 3527
Flit latency average = 20.6463
	minimum = 7
	maximum = 56
Slowest flit = 3527
Fragmentation average = 0
	minimum = 0
	maximum = 0
Injected packet rate average = 0.00966667
	minimum = 0.004 (at node 12)
	maximum = 0.0146667 (at node 14)
Accepted packet rate average = 0.00954167
	minimum = 0.00533333 (at node 5)
	maximum = 0.0126667 (at node 6)
Injected flit rate average = 0.00966667
	minimum = 0.004 (at node 12)
	maximum = 0.0146667 (at node 14)
Accepted flit rate average= 0.00954167
	minimum = 0.00533333 (at node 5)
	maximum = 0.0126667 (at node 6)
Injected packet length average = 1
Accepted packet length average = 1
Total in-flight flits = 3 (3 measured)
latency change    = 0.00260152
throughput change = 0.113537
Class 0:
Packet latency average = 21.3322
	minimum = 7
	maximum = 57
Network latency average = 21.3322
	minimum = 7
	maximum = 57
Slowest packet = 3664
Flit latency average = 21.3322
	minimum = 7
	maximum = 57
Slowest flit = 3664
Fragmentation average = 0
	minimum = 0
	maximum = 0
Injected packet rate average = 0.00940625
	minimum = 0.0055 (at node 2)
	maximum = 0.013 (at node 11)
Accepted packet rate average = 0.0093125
	minimum = 0.006 (at node 5)
	maximum = 0.013 (at node 6)
Injected flit rate average = 0.00940625
	minimum = 0.0055 (at node 2)
	maximum = 0.013 (at node 11)
Accepted flit rate average= 0.0093125
	minimum = 0.006 (at node 5)
	maximum = 0.013 (at node 6)
Injected packet length average = 1
Accepted packet length average = 1
Total in-flight flits = 3 (3 measured)
latency change    = 0.0321545
throughput change = 0.0246085
Class 0:
Packet latency average = 21.4973
	minimum = 7
	maximum = 61
Network latency average = 21.4973
	minimum = 7
	maximum = 61
Slowest packet = 3761
Flit latency average = 21.4973
	minimum = 7
	maximum = 61
Slowest flit = 3761
Fragmentation average = 0
	minimum = 0
	maximum = 0
Injected packet rate average = 0.009375
	minimum = 0.0056 (at node 2)
	maximum = 0.0136 (at node 10)
Accepted packet rate average = 0.0093
	minimum = 0.0052 (at node 5)
	maximum = 0.0116 (at node 6)
Injected flit rate average = 0.009375
	minimum = 0.0056 (at node 2)
	maximum = 0.0136 (at node 10)
Accepted flit rate average= 0.0093
	minimum = 0.0052 (at node 5)
	maximum = 0.0116 (at node 6)
Injected packet length average = 1
Accepted packet length average = 1
Total in-flight flits = 3 (3 measured)
latency change    = 0.00767989
throughput change = 0.00134409
Class 0:
Packet latency average = 21.5465
	minimum = 7
	maximum = 61
Network latency average = 21.5465
	minimum = 7
	maximum = 61
Slowest packet = 3761
Flit latency average = 21.5465
	minimum = 7
	maximum = 61
Slowest flit = 3761
Fragmentation average = 0
	minimum = 0
	maximum = 0
Injected packet rate average = 0.00947917
	minimum = 0.00633333 (at node 12)
	maximum = 0.0136667 (at node 11)
Accepted packet rate average = 0.00941667
	minimum = 0.00666667 (at node 5)
	maximum = 0.0126667 (at node 8)
Injected flit rate average = 0.00947917
	minimum = 0.00633333 (at node 12)
	maximum = 0.0136667 (at node 11)
Accepted flit rate average= 0.00941667
	minimum = 0.00666667 (at node 5)
	maximum = 0.0126667 (at node 8)
Injected packet length average = 1
Accepted packet length average = 1
Total in-flight flits = 3 (3 measured)
latency change    = 0.00228104
throughput change = 0.0123894
Draining all recorded packets ...
Draining remaining packets ...
Time taken is 4531 cycles
Class 0:
Packet latency average = 22.7324
	minimum = 7
	maximum = 54
Network latency average = 22.7324
	minimum = 7
	maximum = 54
Slowest packet = 3897
Flit latency average = 22.7324
	minimum = 7
	maximum = 54
Slowest flit = 3897
Fragmentation average = 0
	minimum = 0
	maximum = 0
Injected packet rate average = 0.009
	minimum = 0 (at node 10)
	maximum = 0.02 (at node 14)
Accepted packet rate average = 0.008875
	minimum = 0.004 (at node 1)
	maximum = 0.018 (at node 4)
Injected flit rate average = 0.009
	minimum = 0 (at node 10)
	maximum = 0.02 (at node 14)
Accepted flit rate average= 0.008875
	minimum = 0.004 (at node 1)
	maximum = 0.018 (at node 4)
Injected packet length average = 1
Accepted packet length average = 1
Total in-flight flits = 1 (0 measured)
latency change    = 1
throughput change = 1
Class 0:
Packet latency average = 21.0311
	minimum = 7
	maximum = 54
Network latency average = 21.0311
	minimum = 7
	maximum = 54
Slowest packet = 3897
Flit latency average = 21.0311
	minimum = 7
	maximum = 54
Slowest flit = 3897
Fragmentation average = 0
	minimum = 0
	maximum = 0
Injected packet rate average = 0.01025
	minimum = 0.004 (at node 10)
	maximum = 0.018 (at node 14)
Accepted packet rate average = 0.0100625
	minimum = 0.005 (at node 12)
	maximum = 0.014 (at node 0)
Injected flit rate average = 0.01025
	minimum = 0.004 (at node 10)
	maximum = 0.018 (at node 14)
Accepted flit rate average= 0.0100625
	minimum = 0.005 (at node 12)
	maximum = 0.014 (at node 0)
Injected packet length average = 1
Accepted packet length average = 1
Total in-flight flits = 3 (0 measured)
latency change    = 0.0808965
throughput change = 0.118012
Class 0:
Packet latency average = 21.4886
	minimum = 7
	maximum = 57
Network latency average = 21.4886
	minimum = 7
	maximum = 57
Slowest packet = 4062
Flit latency average = 21.4886
	minimum = 7
	maximum = 57
Slowest flit = 4062
Fragmentation average = 0
	minimum = 0
	maximum = 0
Injected packet rate average = 0.01125
	minimum = 0.006 (at node 4)
	maximum = 0.02 (at node 0)
Accepted packet rate average = 0.011
	minimum = 0.004 (at node 5)
	maximum = 0.02 (at node 1)
Injected flit rate average = 0.01125
	minimum = 0.006 (at node 4)
	maximum = 0.02 (at node 0)
Accepted flit rate average= 0.011
	minimum = 0.004 (at node 5)
	maximum = 0.02 (at node 1)
Injected packet length average = 1
Accepted packet length average = 1
Total in-flight flits = 5 (0 measured)
latency change    = 0.0212941
throughput change = 0.0852273
Warmed up ...Time used is 1500 cycles
Class 0:
Packet latency average = 21.1186
	minimum = 7
	maximum = 60
Network latency average = 21.1186
	minimum = 7
	maximum = 60
Slowest packet = 4160
Flit latency average = 21.7344
	minimum = 7
	maximum = 60
Slowest flit = 4160
Fragmentation average = 0
	minimum = 0
	maximum = 0
Injected packet rate average = 0.00825
	minimum = 0.002 (at node 6)
	maximum = 0.014 (at node 10)
Accepted packet rate average = 0.008
	minimum = 0 (at node 8)
	maximum = 0.016 (at node 11)
Injected flit rate average = 0.00825
	minimum = 0.002 (at node 6)
	maximum = 0.014 (at node 10)
Accepted flit rate average= 0.008
	minimum = 0 (at node 8)
	maximum = 0.016 (at node 11)
Injected packet length average = 1
Accepted packet length average = 1
Total in-flight flits = 7 (7 measured)
latency change    = 0.0175197
throughput change = 0.375
Class 0:
Packet latency average = 22.2238
	minimum = 7
	maximum = 60
Network latency average = 22.2238
	minimum = 7
	maximum = 60
Slowest packet = 4160
Flit latency average = 22.4527
	minimum = 7
	maximum = 60
Slowest flit = 4160
Fragmentation average = 0
	minimum = 0
	maximum = 0
Injected packet rate average = 0.0093125
	minimum = 0.004 (at node 7)
	maximum = 0.015 (at node 8)
Accepted packet rate average = 0.00925
	minimum = 0.001 (at node 8)
	maximum = 0.014 (at node 11)
Injected flit rate average = 0.0093125
	minimum = 0.004 (at node 7)
	maximum = 0.015 (at node 8)
Accepted flit rate average= 0.00925
	minimum = 0.001 (at node 8)
	maximum = 0.014 (at node 11)
Injected packet length average = 1
Accepted packet length average = 1
Total in-flight flits = 6 (6 measured)
latency change    = 0.0497275
throughput change = 0.135135
Class 0:
Packet latency average = 22.3867
	minimum = 7
	maximum = 60
Network latency average = 22.3867
	minimum = 7
	maximum = 60
Slowest packet = 4160
Flit latency average = 22.5304
	minimum = 7
	maximum = 60
Slowest flit = 4160
Fragmentation average = 0
	minimum = 0
	maximum = 0
Injected packet rate average = 0.009625
	minimum = 0.00533333 (at node 7)
	maximum = 0.016 (at node 8)
Accepted packet rate average = 0.00958333
	minimum = 0.002 (at node 8)
	maximum = 0.0153333 (at node 7)
Injected flit rate average = 0.009625
	minimum = 0.00533333 (at node 7)
	maximum = 0.016 (at node 8)
Accepted flit rate average= 0.00958333
	minimum = 0.002 (at node 8)
	maximum = 0.0153333 (at node 7)
Injected packet length average = 1
Accepted packet length average = 1
Total in-flight flits = 6 (6 measured)
latency change    = 0.00727623
throughput change = 0.0347826
Class 0:
Packet latency average = 22.1323
	minimum = 7
	maximum = 60
Network latency average = 22.1323
	minimum = 7
	maximum = 60
Slowest packet = 4160
Flit latency average = 22.2413
	minimum = 7
	maximum = 60
Slowest flit = 4160
Fragmentation average = 0
	minimum = 0
	maximum = 0
Injected packet rate average = 0.00971875
	minimum = 0.006 (at node 7)
	maximum = 0.0135 (at node 8)
Accepted packet rate average = 0.00984375
	minimum = 0.0045 (at node 8)
	maximum = 0.014 (at node 6)
Injected flit rate average = 0.00971875
	minimum = 0.006 (at node 7)
	maximum = 0.0135 (at node 8)
Accepted flit rate average= 0.00984375
	minimum = 0.0045 (at node 8)
	maximum = 0.014 (at node 6)
Injected packet length average = 1
Accepted packet length average = 1
Total in-flight flits = 1 (1 measured)
latency change    = 0.0114949
throughput change = 0.026455
Class 0:
Packet latency average = 21.9798
	minimum = 7
	maximum = 60
Network latency average = 21.9798
	minimum = 7
	maximum = 60
Slowest packet = 4160
Flit latency average = 22.0672
	minimum = 7
	maximum = 60
Slowest flit = 4160
Fragmentation average = 0
	minimum = 0
	maximum = 0
Injected packet rate average = 0.010075
	minimum = 0.0064 (at node 7)
	maximum = 0.0156 (at node 8)
Accepted packet rate average = 0.01005
	minimum = 0.0052 (at node 8)
	maximum = 0.0152 (at node 6)
Injected flit rate average = 0.010075
	minimum = 0.0064 (at node 7)
	maximum = 0.0156 (at node 8)
Accepted flit rate average= 0.01005
	minimum = 0.0052 (at node 8)
	maximum = 0.0152 (at node 6)
Injected packet length average = 1
Accepted packet length average = 1
Total in-flight flits = 6 (6 measured)
latency change    = 0.00693404
throughput change = 0.0205224
Draining all recorded packets ...
Draining remaining packets ...
Time taken is 4052 cycles
Class 0:
Packet latency average = 21.2286
	minimum = 7
	maximum = 65
Network latency average = 21.2286
	minimum = 7
	maximum = 65
Slowest packet = 4537
Flit latency average = 21.2286
	minimum = 7
	maximum = 65
Slowest flit = 4537
Fragmentation average = 0
	minimum = 0
	maximum = 0
Injected packet rate average = 0.00925
	minimum = 0.004 (at node 2)
	maximum = 0.02 (at node 5)
Accepted packet rate average = 0.00875
	minimum = 0.002 (at node 11)
	maximum = 0.016 (at node 7)
Injected flit rate average = 0.00925
	minimum = 0.004 (at node 2)
	maximum = 0.02 (at node 5)
Accepted flit rate average= 0.00875
	minimum = 0.002 (at node 11)
	maximum = 0.016 (at node 7)
Injected packet length average = 1
Accepted packet length average = 1
Total in-flight flits = 4 (0 measured)
latency change    = 1
throughput change = 1
Class 0:
Packet latency average = 21.4759
	minimum = 7
	maximum = 65
Network latency average = 21.4759
	minimum = 7
	maximum = 65
Slowest packet = 4537
Flit latency average = 21.4759
	minimum = 7
	maximum = 65
Slowest flit = 4537
Fragmentation average = 0
	minimum = 0
	maximum = 0
Injected packet rate average = 0.0105
	minimum = 0.005 (at node 14)
	maximum = 0.02 (at node 5)
Accepted packet rate average = 0.010375
	minimum = 0.005 (at node 11)
	maximum = 0.014 (at node 0)
Injected flit rate average = 0.0105
	minimum = 0.005 (at node 14)
	maximum = 0.02 (at node 5)
Accepted flit rate average= 0.010375
	minimum = 0.005 (at node 11)
	maximum = 0.014 (at node 0)
Injected packet length average = 1
Accepted packet length average = 1
Total in-flight flits = 2 (0 measured)
latency change    = 0.0115167
throughput change = 0.156627
Class 0:
Packet latency average = 21.9412
	minimum = 7
	maximum = 57
Network latency average = 21.9412
	minimum = 7
	maximum = 57
Slowest packet = 4722
Flit latency average = 21.9412
	minimum = 7
	maximum = 57
Slowest flit = 4722
Fragmentation average = 0
	minimum = 0
	maximum = 0
Injected packet rate average = 0.008625
	minimum = 0.002 (at node 0)
	maximum = 0.016 (at node 12)
Accepted packet rate average = 0.0085
	minimum = 0.002 (at node 7)
	maximum = 0.018 (at node 5)
Injected flit rate average = 0.008625
	minimum = 0.002 (at node 0)
	maximum = 0.016 (at node 12)
Accepted flit rate average= 0.0085
	minimum = 0.002 (at node 7)
	maximum = 0.018 (at node 5)
Injected packet length average = 1
Accepted packet length average = 1
Total in-flight flits = 3 (0 measured)
latency change    = 0.0212055
throughput change = 0.220588
Warmed up ...Time used is 1500 cycles
Class 0:
Packet latency average = 20.7536
	minimum = 7
	maximum = 52
Network latency average = 20.7536
	minimum = 7
	maximum = 52
Slowest packet = 4817
Flit latency average = 20.4583
	minimum = 7
	maximum = 52
Slowest flit = 4817
Fragmentation average = 0
	minimum = 0
	maximum = 0
Injected packet rate average = 0.009
	minimum = 0.002 (at node 3)
	maximum = 0.016 (at node 0)
Accepted packet rate average = 0.009
	minimum = 0.004 (at node 4)
	maximum = 0.012 (at node 1)
Injected flit rate average = 0.009
	minimum = 0.002 (at node 3)
	maximum = 0.016 (at node 0)
Accepted flit rate average= 0.009
	minimum = 0.004 (at node 4)
	maximum = 0.012 (at node 1)
Injected packet length average = 1
Accepted packet length average = 1
Total in-flight flits = 3 (3 measured)
latency change    = 0.0572215
throughput change = 0.0555556
Class 0:
Packet latency average = 22.1132
	minimum = 7
	maximum = 52
Network latency average = 22.1132
	minimum = 7
	maximum = 52
Slowest packet = 4817
Flit latency average = 21.9568
	minimum = 7
	maximum = 52
Slowest flit = 4817
Fragmentation average = 0
	minimum = 0
	maximum = 0
Injected packet rate average = 0.0100625
	minimum = 0.004 (at node 9)
	maximum = 0.018 (at node 0)
Accepted packet rate average = 0.010125
	minimum = 0.006 (at node 0)
	maximum = 0.016 (at node 8)
Injected flit rate average = 0.0100625
	minimum = 0.004 (at node 9)
	maximum = 0.018 (at node 0)
Accepted flit rate average= 0.010125
	minimum = 0.006 (at node 0)
	maximum = 0.016 (at node 8)
Injected packet length average = 1
Accepted packet length average = 1
Total in-flight flits = 2 (2 measured)
latency change    = 0.0614829
throughput change = 0.111111
Class 0:
Packet latency average = 21.8354
	minimum = 7
	maximum = 52
Network latency average = 21.8354
	minimum = 7
	maximum = 52
Slowest packet = 4817
Flit latency average = 21.7333
	minimum = 7
	maximum = 52
Slowest flit = 4817
Fragmentation average = 0
	minimum = 0
	maximum = 0
Injected packet rate average = 0.00995833
	minimum = 0.006 (at node 3)
	maximum = 0.014 (at node 10)
Accepted packet rate average = 0.01
	minimum = 0.00533333 (at node 0)
	maximum = 0.0153333 (at node 5)
Injected flit rate average = 0.00995833
	minimum = 0.006 (at node 3)
	maximum = 0.014 (at node 10)
Accepted flit rate average= 0.01
	minimum = 0.00533333 (at node 0)
	maximum = 0.0153333 (at node 5)
Injected packet length average = 1
Accepted packet length average = 1
Total in-flight flits = 2 (2 measured)
latency change    = 0.0127208
throughput change = 0.0125
Class 0:
Packet latency average = 21.9598
	minimum = 7
	maximum = 64
Network latency average = 21.9598
	minimum = 7
	maximum = 64
Slowest packet = 5024
Flit latency average = 21.8834
	minimum = 7
	maximum = 64
Slowest flit = 5024
Fragmentation average = 0
	minimum = 0
	maximum = 0
Injected packet rate average = 0.010125
	minimum = 0.0075 (at node 6)
	maximum = 0.014 (at node 15)
Accepted packet rate average = 0.0101875
	minimum = 0.0055 (at node 0)
	maximum = 0.014 (at node 8)
Injected flit rate average = 0.010125
	minimum = 0.0075 (at node 6)
	maximum = 0.014 (at node 15)
Accepted flit rate average= 0.0101875
	minimum = 0.0055 (at node 0)
	maximum = 0.014 (at node 8)
Injected packet length average = 1
Accepted packet length average = 1
Total in-flight flits = 1 (1 measured)
latency change    = 0.00566078
throughput change = 0.0184049
Class 0:
Packet latency average = 21.8978
	minimum = 7
	maximum = 64
Network latency average = 21.8978
	minimum = 7
	maximum = 64
Slowest packet = 5024
Flit latency average = 21.8366
	minimum = 7
	maximum = 64
Slowest flit = 5024
Fragmentation average = 0
	minimum = 0
	maximum = 0
Injected packet rate average = 0.01005
	minimum = 0.0076 (at node 7)
	maximum = 0.0136 (at node 15)
Accepted packet rate average = 0.0101
	minimum = 0.0068 (at node 0)
	maximum = 0.014 (at node 8)
Injected flit rate average = 0.01005
	minimum = 0.0076 (at node 7)
	maximum = 0.0136 (at node 15)
Accepted flit rate average= 0.0101
	minimum = 0.0068 (at node 0)
	maximum = 0.014 (at node 8)
Injected packet length average = 1
Accepted packet length average = 1
Total in-flight flits = 1 (1 measured)
latency change    = 0.00283119
throughput change = 0.00866337
Draining all recorded packets ...
Draining remaining packets ...
Time taken is 4044 cycles
Class 0:
Packet latency average = 22.1429
	minimum = 7
	maximum = 52
Network latency average = 22.1429
	minimum = 7
	maximum = 52
Slowest packet = 5183
Flit latency average = 22.1429
	minimum = 7
	maximum = 52
Slowest flit = 5183
Fragmentation average = 0
	minimum = 0
	maximum = 0
Injected packet rate average = 0.009375
	minimum = 0.004 (at node 5)
	maximum = 0.016 (at node 3)
Accepted packet rate average = 0.00875
	minimum = 0 (at node 0)
	maximum = 0.014 (at node 3)
Injected flit rate average = 0.009375
	minimum = 0.004 (at node 5)
	maximum = 0.016 (at node 3)
Accepted flit rate average= 0.00875
	minimum = 0 (at node 0)
	maximum = 0.014 (at node 3)
Injected packet length average = 1
Accepted packet length average = 1
Total in-flight flits = 5 (0 measured)
latency change    = 1
throughput change = 1
Class 0:
Packet latency average = 23.057
	minimum = 7
	maximum = 56
Network latency average = 23.057
	minimum = 7
	maximum = 56
Slowest packet = 5312
Flit latency average = 23.057
	minimum = 7
	maximum = 56
Slowest flit = 5312
Fragmentation average = 0
	minimum = 0
	maximum = 0
Injected packet rate average = 0.01
	minimum = 0.005 (at node 5)
	maximum = 0.017 (at node 12)
Accepted packet rate average = 0.009875
	minimum = 0.005 (at node 0)
	maximum = 0.018 (at node 1)
Injected flit rate average = 0.01
	minimum = 0.005 (at node 5)
	maximum = 0.017 (at node 12)
Accepted flit rate average= 0.009875
	minimum = 0.005 (at node 0)
	maximum = 0.018 (at node 1)
Injected packet length average = 1
Accepted packet length average = 1
Total in-flight flits = 2 (0 measured)
latency change    = 0.0396455
throughput change = 0.113924
Class 0:
Packet latency average = 22.5
	minimum = 7
	maximum = 54
Network latency average = 22.5
	minimum = 7
	maximum = 54
Slowest packet = 5385
Flit latency average = 22.5
	minimum = 7
	maximum = 54
Slowest flit = 5385
Fragmentation average = 0
	minimum = 0
	maximum = 0
Injected packet rate average = 0.009
	minimum = 0.004 (at node 5)
	maximum = 0.018 (at node 8)
Accepted packet rate average = 0.00925
	minimum = 0.002 (at node 2)
	maximum = 0.016 (at node 13)
Injected flit rate average = 0.009
	minimum = 0.004 (at node 5)
	maximum = 0.018 (at node 8)
Accepted flit rate average= 0.00925
	minimum = 0.002 (at node 2)
	maximum = 0.016 (at node 13)
Injected packet length average = 1
Accepted packet length average = 1
Total in-flight flits = 0 (0 measured)
latency change    = 0.0247539
throughput change = 0.0675676
Warmed up ...Time used is 1500 cycles
Class 0:
Packet latency average = 21.0312
	minimum = 7
	maximum = 52
Network latency average = 21.0312
	minimum = 7
	maximum = 52
Slowest packet = 5433
Flit latency average = 21.0312
	minimum = 7
	maximum = 52
Slowest flit = 5433
Fragmentation average = 0
	minimum = 0
	maximum = 0
Injected packet rate average = 0.008375
	minimum = 0.004 (at node 2)
	maximum = 0.014 (at node 9)
Accepted packet rate average = 0.008
	minimum = 0.004 (at node 3)
	maximum = 0.014 (at node 1)
Injected flit rate average = 0.008375
	minimum = 0.004 (at node 2)
	maximum = 0.014 (at node 9)
Accepted flit rate average= 0.008
	minimum = 0.004 (at node 3)
	maximum = 0.014 (at node 1)
Injected packet length average = 1
Accepted packet length average = 1
Total in-flight flits = 3 (3 measured)
latency change    = 0.0698366
throughput change = 0.15625
Class 0:
Packet latency average = 21.1522
	minimum = 7
	maximum = 52
Network latency average = 21.1522
	minimum = 7
	maximum = 52
Slowest packet = 5433
Flit latency average = 21.1522
	minimum = 7
	maximum = 52
Slowest flit = 5433
Fragmentation average = 0
	minimum = 0
	maximum = 0
Injected packet rate average = 0.008875
	minimum = 0.004 (at node 11)
	maximum = 0.015 (at node 12)
Accepted packet rate average = 0.008625
	minimum = 0.005 (at node 3)
	maximum = 0.012 (at node 13)
Injected flit rate average = 0.008875
	minimum = 0.004 (at node 11)
	maximum = 0.015 (at node 12)
Accepted flit rate average= 0.008625
	minimum = 0.005 (at node 3)
	maximum = 0.012 (at node 13)
Injected packet length average = 1
Accepted packet length average = 1
Total in-flight flits = 4 (4 measured)
latency change    = 0.00571686
throughput change = 0.0724638
Class 0:
Packet latency average = 21.8995
	minimum = 7
	maximum = 52
Network latency average = 21.8995
	minimum = 7
	maximum = 52
Slowest packet = 5433
Flit latency average = 21.8995
	minimum = 7
	maximum = 52
Slowest flit = 5433
Fragmentation average = 0
	minimum = 0
	maximum = 0
Injected packet rate average = 0.00883333
	minimum = 0.004 (at node 0)
	maximum = 0.0133333 (at node 13)
Accepted packet rate average = 0.00870833
	minimum = 0.00666667 (at node 2)
	maximum = 0.0133333 (at node 11)
Injected flit rate average = 0.00883333
	minimum = 0.004 (at node 0)
	maximum = 0.0133333 (at node 13)
Accepted flit rate average= 0.00870833
	minimum = 0.00666667 (at node 2)
	maximum = 0.0133333 (at node 11)
Injected packet length average = 1
Accepted packet length average = 1
Total in-flight flits = 3 (3 measured)
latency change    = 0.0341262
throughput change = 0.00956938
Class 0:
Packet latency average = 21.8655
	minimum = 7
	maximum = 52
Network latency average = 21.8655
	minimum = 7
	maximum = 52
Slowest packet = 5433
Flit latency average = 21.8655
	minimum = 7
	maximum = 52
Slowest flit = 5433
Fragmentation average = 0
	minimum = 0
	maximum = 0
Injected packet rate average = 0.00921875
	minimum = 0.0055 (at node 0)
	maximum = 0.0135 (at node 6)
Accepted packet rate average = 0.0090625
	minimum = 0.006 (at node 3)
	maximum = 0.0145 (at node 11)
Injected flit rate average = 0.00921875
	minimum = 0.0055 (at node 0)
	maximum = 0.0135 (at node 6)
Accepted flit rate average= 0.0090625
	minimum = 0.006 (at node 3)
	maximum = 0.0145 (at node 11)
Injected packet length average = 1
Accepted packet length average = 1
Total in-flight flits = 5 (5 measured)
latency change    = 0.00155516
throughput change = 0.0390805
Class 0:
Packet latency average = 22.1025
	minimum = 7
	maximum = 69
Network latency average = 22.1025
	minimum = 7
	maximum = 69
Slowest packet = 5718
Flit latency average = 22.1025
	minimum = 7
	maximum = 69
Slowest flit = 5718
Fragmentation average = 0
	minimum = 0
	maximum = 0
Injected packet rate average = 0.00915
	minimum = 0.0056 (at node 11)
	maximum = 0.0132 (at node 13)
Accepted packet rate average = 0.009025
	minimum = 0.0068 (at node 5)
	maximum = 0.0132 (at node 11)
Injected flit rate average = 0.00915
	minimum = 0.0056 (at node 11)
	maximum = 0.0132 (at node 13)
Accepted flit rate average= 0.009025
	minimum = 0.0068 (at node 5)
	maximum = 0.0132 (at node 11)
Injected packet length average = 1
Accepted packet length average = 1
Total in-flight flits = 5 (5 measured)
latency change    = 0.0107217
throughput change = 0.00415512
Draining all recorded packets ...
Draining remaining packets ...
Time taken is 4062 cycles
Class 0:
Packet latency average = 20.1905
	minimum = 7
	maximum = 42
Network latency average = 20.1905
	minimum = 7
	maximum = 42
Slowest packet = 5785
Flit latency average = 20.1905
	minimum = 7
	maximum = 42
Slowest flit = 5785
Fragmentation average = 0
	minimum = 0
	maximum = 0
Injected packet rate average = 0.01075
	minimum = 0.004 (at node 7)
	maximum = 0.02 (at node 4)
Accepted packet rate average = 0.0105
	minimum = 0.004 (at node 2)
	maximum = 0.022 (at node 8)
Injected flit rate average = 0.01075
	minimum = 0.004 (at node 7)
	maximum = 0.02 (at node 4)
Accepted flit rate average= 0.0105
	minimum = 0.004 (at node 2)
	maximum = 0.022 (at node 8)
Injected packet length average = 1
Accepted packet length average = 1
Total in-flight flits = 2 (0 measured)
latency change    = 1
throughput change = 1
Class 0:
Packet latency average = 20.8961
	minimum = 7
	maximum = 52
Network latency average = 20.8961
	minimum = 7
	maximum = 52
Slowest packet = 5880
Flit latency average = 20.8961
	minimum = 7
	maximum = 52
Slowest flit = 5880
Fragmentation average = 0
	minimum = 0
	maximum = 0
Injected packet rate average = 0.009875
	minimum = 0.004 (at node 9)
	maximum = 0.015 (at node 12)
Accepted packet rate average = 0.009625
	minimum = 0.005 (at node 4)
	maximum = 0.016 (at node 1)
Injected flit rate average = 0.009875
	minimum = 0.004 (at node 9)
	maximum = 0.015 (at node 12)
Accepted flit rate average= 0.009625
	minimum = 0.005 (at node 4)
	maximum = 0.016 (at node 1)
Injected packet length average = 1
Accepted packet length average = 1
Total in-flight flits = 4 (0 measured)
latency change    = 0.0337684
throughput change = 0.0909091
Class 0:
Packet latency average = 23.378
	minimum = 7
	maximum = 53
Network latency average = 23.378
	minimum = 7
	maximum = 53
Slowest packet = 5968
Flit latency average = 23.378
	minimum = 7
	maximum = 53
Slowest flit = 5968
Fragmentation average = 0
	minimum = 0
	maximum = 0
Injected packet rate average = 0.01025
	minimum = 0.002 (at node 7)
	maximum = 0.016 (at node 0)
Accepted packet rate average = 0.01025
	minimum = 0.002 (at node 2)
	maximum = 0.016 (at node 11)
Injected flit rate average = 0.01025
	minimum = 0.002 (at node 7)
	maximum = 0.016 (at node 0)
Accepted flit rate average= 0.01025
	minimum = 0.002 (at node 2)
	maximum = 0.016 (at node 11)
Injected packet length average = 1
Accepted packet length average = 1
Total in-flight flits = 4 (0 measured)
latency change    = 0.106166
throughput change = 0.0609756
Warmed up ...Time used is 1500 cycles
Class 0:
Packet latency average = 21.2784
	minimum = 7
	maximum = 52
Network latency average = 21.2784
	minimum = 7
	maximum = 52
Slowest packet = 6057
Flit latency average = 21.5545
	minimum = 7
	maximum = 52
Slowest flit = 6057
Fragmentation average = 0
	minimum = 0
	maximum = 0
Injected packet rate average = 0.012625
	minimum = 0.004 (at node 0)
	maximum = 0.022 (at node 11)
Accepted packet rate average = 0.012625
	minimum = 0.006 (at node 11)
	maximum = 0.018 (at node 3)
Injected flit rate average = 0.012625
	minimum = 0.004 (at node 0)
	maximum = 0.022 (at node 11)
Accepted flit rate average= 0.012625
	minimum = 0.006 (at node 11)
	maximum = 0.018 (at node 3)
Injected packet length average = 1
Accepted packet length average = 1
Total in-flight flits = 4 (4 measured)
latency change    = 0.0986777
throughput change = 0.188119
Class 0:
Packet latency average = 21.0058
	minimum = 7
	maximum = 52
Network latency average = 21.0058
	minimum = 7
	maximum = 52
Slowest packet = 6057
Flit latency average = 21.1705
	minimum = 7
	maximum = 52
Slowest flit = 6057
Fragmentation average = 0
	minimum = 0
	maximum = 0
Injected packet rate average = 0.011125
	minimum = 0.005 (at node 1)
	maximum = 0.017 (at node 6)
Accepted packet rate average = 0.011
	minimum = 0.007 (at node 11)
	maximum = 0.016 (at node 5)
Injected flit rate average = 0.011125
	minimum = 0.005 (at node 1)
	maximum = 0.017 (at node 6)
Accepted flit rate average= 0.011
	minimum = 0.007 (at node 11)
	maximum = 0.016 (at node 5)
Injected packet length average = 1
Accepted packet length average = 1
Total in-flight flits = 6 (6 measured)
latency change    = 0.0129743
throughput change = 0.147727
Class 0:
Packet latency average = 20.6379
	minimum = 7
	maximum = 52
Network latency average = 20.6379
	minimum = 7
	maximum = 52
Slowest packet = 6057
Flit latency average = 20.7611
	minimum = 7
	maximum = 52
Slowest flit = 6057
Fragmentation average = 0
	minimum = 0
	maximum = 0
Injected packet rate average = 0.0102917
	minimum = 0.006 (at node 13)
	maximum = 0.0166667 (at node 11)
Accepted packet rate average = 0.0102917
	minimum = 0.00666667 (at node 11)
	maximum = 0.0126667 (at node 5)
Injected flit rate average = 0.0102917
	minimum = 0.006 (at node 13)
	maximum = 0.0166667 (at node 11)
Accepted flit rate average= 0.0102917
	minimum = 0.00666667 (at node 11)
	maximum = 0.0126667 (at node 5)
Injected packet length average = 1
Accepted packet length average = 1
Total in-flight flits = 4 (4 measured)
latency change    = 0.0178291
throughput change = 0.0688259
Class 0:
Packet latency average = 21.1173
	minimum = 7
	maximum = 52
Network latency average = 21.1173
	minimum = 7
	maximum = 52
Slowest packet = 6057
Flit latency average = 21.2043
	minimum = 7
	maximum = 52
Slowest flit = 6057
Fragmentation average = 0
	minimum = 0
	maximum = 0
Injected packet rate average = 0.0101875
	minimum = 0.0065 (at node 13)
	maximum = 0.014 (at node 11)
Accepted packet rate average = 0.01025
	minimum = 0.0065 (at node 11)
	maximum = 0.013 (at node 8)
Injected flit rate average = 0.0101875
	minimum = 0.0065 (at node 13)
	maximum = 0.014 (at node 11)
Accepted flit rate average= 0.01025
	minimum = 0.0065 (at node 11)
	maximum = 0.013 (at node 8)
Injected packet length average = 1
Accepted packet length average = 1
Total in-flight flits = 2 (2 measured)
latency change    = 0.0227029
throughput change = 0.00406504
Class 0:
Packet latency average = 21.0386
	minimum = 7
	maximum = 52
Network latency average = 21.0386
	minimum = 7
	maximum = 52
Slowest packet = 6057
Flit latency average = 21.1074
	minimum = 7
	maximum = 52
Slowest flit = 6057
Fragmentation average = 0
	minimum = 0
	maximum = 0
Injected packet rate average = 0.010425
	minimum = 0.008 (at node 13)
	maximum = 0.0128 (at node 2)
Accepted packet rate average = 0.010475
	minimum = 0.0084 (at node 11)
	maximum = 0.014 (at node 2)
Injected flit rate average = 0.010425
	minimum = 0.008 (at node 13)
	maximum = 0.0128 (at node 2)
Accepted flit rate average= 0.010475
	minimum = 0.0084 (at node 11)
	maximum = 0.014 (at node 2)
Injected packet length average = 1
Accepted packet length average = 1
Total in-flight flits = 2 (2 measured)
latency change    = 0.00374216
throughput change = 0.0214797
Class 0:
Packet latency average = 21.1154
	minimum = 7
	maximum = 52
Network latency average = 21.1154
	minimum = 7
	maximum = 52
Slowest packet = 6057
Flit latency average = 21.1727
	minimum = 7
	maximum = 52
Slowest flit = 6057
Fragmentation average = 0
	minimum = 0
	maximum = 0
Injected packet rate average = 0.0103333
	minimum = 0.00766667 (at node 5)
	maximum = 0.013 (at node 7)
Accepted packet rate average = 0.010375
	minimum = 0.00833333 (at node 15)
	maximum = 0.0143333 (at node 4)
Injected flit rate average = 0.0103333
	minimum = 0.00766667 (at node 5)
	maximum = 0.013 (at node 7)
Accepted flit rate average= 0.010375
	minimum = 0.00833333 (at node 15)
	maximum = 0.0143333 (at node 4)
Injected packet length average = 1
Accepted packet length average = 1
Total in-flight flits = 2 (2 measured)
latency change    = 0.0036386
throughput change = 0.00963855
Draining all recorded packets ...
Draining remaining packets ...
Time taken is 4570 cycles
Class 0:
Packet latency average = 19.3412
	minimum = 7
	maximum = 42
Network latency average = 19.3412
	minimum = 7
	maximum = 42
Slowest packet = 6558
Flit latency average = 19.3412
	minimum = 7
	maximum = 42
Slowest flit = 6558
Fragmentation average = 0
	minimum = 0
	maximum = 0
Injected packet rate average = 0.010875
	minimum = 0.002 (at node 6)
	maximum = 0.02 (at node 2)
Accepted packet rate average = 0.010625
	minimum = 0.002 (at node 10)
	maximum = 0.018 (at node 9)
Injected flit rate average = 0.010875
	minimum = 0.002 (at node 6)
	maximum = 0.02 (at node 2)
Accepted flit rate average= 0.010625
	minimum = 0.002 (at node 10)
	maximum = 0.018 (at node 9)
Injected packet length average = 1
Accepted packet length average = 1
Total in-flight flits = 2 (0 measured)
latency change    = 1
throughput change = 1
Class 0:
Packet latency average = 20.6084
	minimum = 7
	maximum = 56
Network latency average = 20.6084
	minimum = 7
	maximum = 56
Slowest packet = 6627
Flit latency average = 20.6084
	minimum = 7
	maximum = 56
Slowest flit = 6627
Fragmentation average = 0
	minimum = 0
	maximum = 0
Injected packet rate average = 0.0105
	minimum = 0.005 (at node 0)
	maximum = 0.016 (at node 2)
Accepted packet rate average = 0.010375
	minimum = 0.005 (at node 10)
	maximum = 0.016 (at node 9)
Injected flit rate average = 0.0105
	minimum = 0.005 (at node 0)
	maximum = 0.016 (at node 2)
Accepted flit rate average= 0.010375
	minimum = 0.005 (at node 10)
	maximum = 0.016 (at node 9)
Injected packet length average = 1
Accepted packet length average = 1
Total in-flight flits = 2 (0 measured)
latency change    = 0.0614922
throughput change = 0.0240964
Class 0:
Packet latency average = 20.8289
	minimum = 7
	maximum = 50
Network latency average = 20.8289
	minimum = 7
	maximum = 50
Slowest packet = 6747
Flit latency average = 20.8289
	minimum = 7
	maximum = 50
Slowest flit = 6747
Fragmentation average = 0
	minimum = 0
	maximum = 0
Injected packet rate average = 0.009625
	minimum = 0.004 (at node 0)
	maximum = 0.014 (at node 12)
Accepted packet rate average = 0.0095
	minimum = 0.002 (at node 10)
	maximum = 0.014 (at node 2)
Injected flit rate average = 0.009625
	minimum = 0.004 (at node 0)
	maximum = 0.014 (at node 12)
Accepted flit rate average= 0.0095
	minimum = 0.002 (at node 10)
	maximum = 0.014 (at node 2)
Injected packet length average = 1
Accepted packet length average = 1
Total in-flight flits = 3 (0 measured)
latency change    = 0.0105869
throughput change = 0.0921053
Warmed up ...Time used is 1500 cycles
Class 0:
Packet latency average = 20.8375
	minimum = 7
	maximum = 47
Network latency average = 20.8375
	minimum = 7
	maximum = 47
Slowest packet = 6769
Flit latency average = 21.1205
	minimum = 7
	maximum = 52
Slowest flit = 6756
Fragmentation average = 0
	minimum = 0
	maximum = 0
Injected packet rate average = 0.0105
	minimum = 0.002 (at node 13)
	maximum = 0.016 (at node 4)
Accepted packet rate average = 0.010375
	minimum = 0.006 (at node 3)
	maximum = 0.02 (at node 11)
Injected flit rate average = 0.0105
	minimum = 0.002 (at node 13)
	maximum = 0.016 (at node 4)
Accepted flit rate average= 0.010375
	minimum = 0.006 (at node 3)
	maximum = 0.02 (at node 11)
Injected packet length average = 1
Accepted packet length average = 1
Total in-flight flits = 4 (4 measured)
latency change    = 0.000410444
throughput change = 0.0843373
Class 0:
Packet latency average = 19.6732
	minimum = 7
	maximum = 47
Network latency average = 19.6732
	minimum = 7
	maximum = 47
Slowest packet = 6769
Flit latency average = 19.8462
	minimum = 7
	maximum = 52
Slowest flit = 6756
Fragmentation average = 0
	minimum = 0
	maximum = 0
Injected packet rate average = 0.00975
	minimum = 0.005 (at node 13)
	maximum = 0.013 (at node 4)
Accepted packet rate average = 0.00975
	minimum = 0.006 (at node 12)
	maximum = 0.013 (at node 2)
Injected flit rate average = 0.00975
	minimum = 0.005 (at node 13)
	maximum = 0.013 (at node 4)
Accepted flit rate average= 0.00975
	minimum = 0.006 (at node 12)
	maximum = 0.013 (at node 2)
Injected packet length average = 1
Accepted packet length average = 1
Total in-flight flits = 3 (3 measured)
latency change    = 0.0591819
throughput change = 0.0641026
Class 0:
Packet latency average = 20.5417
	minimum = 7
	maximum = 47
Network latency average = 20.5417
	minimum = 7
	maximum = 47
Slowest packet = 6769
Flit latency average = 20.642
	minimum = 7
	maximum = 52
Slowest flit = 6756
Fragmentation average = 0
	minimum = 0
	maximum = 0
Injected packet rate average = 0.0101667
	minimum = 0.00666667 (at node 2)
	maximum = 0.0153333 (at node 14)
Accepted packet rate average = 0.010125
	minimum = 0.00733333 (at node 3)
	maximum = 0.0153333 (at node 11)
Injected flit rate average = 0.0101667
	minimum = 0.00666667 (at node 2)
	maximum = 0.0153333 (at node 14)
Accepted flit rate average= 0.010125
	minimum = 0.00733333 (at node 3)
	maximum = 0.0153333 (at node 11)
Injected packet length average = 1
Accepted packet length average = 1
Total in-flight flits = 4 (4 measured)
latency change    = 0.0422782
throughput change = 0.037037
Class 0:
Packet latency average = 20.4842
	minimum = 7
	maximum = 52
Network latency average = 20.4842
	minimum = 7
	maximum = 52
Slowest packet = 7060
Flit latency average = 20.5611
	minimum = 7
	maximum = 52
Slowest flit = 6756
Fragmentation average = 0
	minimum = 0
	maximum = 0
Injected packet rate average = 0.0100938
	minimum = 0.008 (at node 9)
	maximum = 0.014 (at node 14)
Accepted packet rate average = 0.00996875
	minimum = 0.008 (at node 5)
	maximum = 0.0145 (at node 11)
Injected flit rate average = 0.0100938
	minimum = 0.008 (at node 9)
	maximum = 0.014 (at node 14)
Accepted flit rate average= 0.00996875
	minimum = 0.008 (at node 5)
	maximum = 0.0145 (at node 11)
Injected packet length average = 1
Accepted packet length average = 1
Total in-flight flits = 7 (7 measured)
latency change    = 0.00280653
throughput change = 0.015674
Class 0:
Packet latency average = 20.7861
	minimum = 7
	maximum = 57
Network latency average = 20.7861
	minimum = 7
	maximum = 57
Slowest packet = 7094
Flit latency average = 20.8444
	minimum = 7
	maximum = 57
Slowest flit = 7094
Fragmentation average = 0
	minimum = 0
	maximum = 0
Injected packet rate average = 0.010075
	minimum = 0.0072 (at node 12)
	maximum = 0.0148 (at node 14)
Accepted packet rate average = 0.010125
	minimum = 0.0076 (at node 3)
	maximum = 0.0148 (at node 11)
Injected flit rate average = 0.010075
	minimum = 0.0072 (at node 12)
	maximum = 0.0148 (at node 14)
Accepted flit rate average= 0.010125
	minimum = 0.0076 (at node 3)
	maximum = 0.0148 (at node 11)
Injected packet length average = 1
Accepted packet length average = 1
Total in-flight flits = 1 (1 measured)
latency change    = 0.0145238
throughput change = 0.0154321
Draining all recorded packets ...
Draining remaining packets ...
Time taken is 4052 cycles
Class 0:
Packet latency average = 21.1489
	minimum = 7
	maximum = 52
Network latency average = 21.1489
	minimum = 7
	maximum = 52
Slowest packet = 7172
Flit latency average = 21.1489
	minimum = 7
	maximum = 52
Slowest flit = 7172
Fragmentation average = 0
	minimum = 0
	maximum = 0
Injected packet rate average = 0.0125
	minimum = 0.002 (at node 2)
	maximum = 0.022 (at node 3)
Accepted packet rate average = 0.01175
	minimum = 0.002 (at node 14)
	maximum = 0.026 (at node 5)
Injected flit rate average = 0.0125
	minimum = 0.002 (at node 2)
	maximum = 0.022 (at node 3)
Accepted flit rate average= 0.01175
	minimum = 0.002 (at node 14)
	maximum = 0.026 (at node 5)
Injected packet length average = 1
Accepted packet length average = 1
Total in-flight flits = 6 (0 measured)
latency change    = 1
throughput change = 1
Class 0:
Packet latency average = 20.4847
	minimum = 7
	maximum = 52
Network latency average = 20.4847
	minimum = 7
	maximum = 52
Slowest packet = 7172
Flit latency average = 20.4847
	minimum = 7
	maximum = 52
Slowest flit = 7172
Fragmentation average = 0
	minimum = 0
	maximum = 0
Injected packet rate average = 0.012375
	minimum = 0.004 (at node 12)
	maximum = 0.021 (at node 15)
Accepted packet rate average = 0.01225
	minimum = 0.004 (at node 14)
	maximum = 0.019 (at node 5)
Injected flit rate average = 0.012375
	minimum = 0.004 (at node 12)
	maximum = 0.021 (at node 15)
Accepted flit rate average= 0.01225
	minimum = 0.004 (at node 14)
	maximum = 0.019 (at node 5)
Injected packet length average = 1
Accepted packet length average = 1
Total in-flight flits = 2 (0 measured)
latency change    = 0.0324263
throughput change = 0.0408163
Class 0:
Packet latency average = 21.5395
	minimum = 7
	maximum = 59
Network latency average = 21.5395
	minimum = 7
	maximum = 59
Slowest packet = 7397
Flit latency average = 21.5395
	minimum = 7
	maximum = 59
Slowest flit = 7397
Fragmentation average = 0
	minimum = 0
	maximum = 0
Injected packet rate average = 0.0095
	minimum = 0.002 (at node 8)
	maximum = 0.018 (at node 7)
Accepted packet rate average = 0.0095
	minimum = 0 (at node 3)
	maximum = 0.016 (at node 1)
[...]
	minimum = 7
	maximum = 52
Slowest packet = 32036
Flit latency average = 22.5135
	minimum = 7
	maximum = 52
Slowest flit = 32036
Fragmentation average = 0
	minimum = 0
	maximum = 0
Injected packet rate average = 0.009
	minimum = 0.004 (at node 3)
	maximum = 0.014 (at node 10)
Accepted packet rate average = 0.00925
	minimum = 0.002 (at node 13)
	maximum = 0.016 (at node 9)
Injected flit rate average = 0.009
	minimum = 0.004 (at node 3)
	maximum = 0.014 (at node 10)
Accepted flit rate average= 0.00925
	minimum = 0.002 (at node 13)
	maximum = 0.016 (at node 9)
Injected packet length average = 1
Accepted packet length average = 1
Total in-flight flits = 2 (2 measured)
latency change    = 0.0559181
throughput change = 0.0135135
Class 0:
Packet latency average = 22.3986
	minimum = 7
	maximum = 52
Network latency average = 22.3986
	minimum = 7
	maximum = 52
Slowest packet = 32036
Flit latency average = 22.4868
	minimum = 7
	maximum = 52
Slowest flit = 32036
Fragmentation average = 0
	minimum = 0
	maximum = 0
Injected packet rate average = 0.0095
	minimum = 0.005 (at node 1)
	maximum = 0.014 (at node 10)
Accepted packet rate average = 0.0095
	minimum = 0.004 (at node 13)
	maximum = 0.015 (at node 0)
Injected flit rate average = 0.0095
	minimum = 0.005 (at node 1)
	maximum = 0.014 (at node 10)
Accepted flit rate average= 0.0095
	minimum = 0.004 (at node 13)
	maximum = 0.015 (at node 0)
Injected packet length average = 1
Accepted packet length average = 1
Total in-flight flits = 4 (4 measured)
latency change    = 0.00312864
throughput change = 0.0263158
Class 0:
Packet latency average = 22.2345
	minimum = 7
	maximum = 52
Network latency average = 22.2345
	minimum = 7
	maximum = 52
Slowest packet = 32036
Flit latency average = 22.2957
	minimum = 7
	maximum = 52
Slowest flit = 32036
Fragmentation average = 0
	minimum = 0
	maximum = 0
Injected packet rate average = 0.0095
	minimum = 0.00666667 (at node 0)
	maximum = 0.014 (at node 10)
Accepted packet rate average = 0.00958333
	minimum = 0.00466667 (at node 13)
	maximum = 0.0146667 (at node 0)
Injected flit rate average = 0.0095
	minimum = 0.00666667 (at node 0)
	maximum = 0.014 (at node 10)
Accepted flit rate average= 0.00958333
	minimum = 0.00466667 (at node 13)
	maximum = 0.0146667 (at node 0)
Injected packet length average = 1
Accepted packet length average = 1
Total in-flight flits = 2 (2 measured)
latency change    = 0.00738201
throughput change = 0.00869565
Class 0:
Packet latency average = 22.6201
	minimum = 7
	maximum = 58
Network latency average = 22.6201
	minimum = 7
	maximum = 58
Slowest packet = 32307
Flit latency average = 22.6603
	minimum = 7
	maximum = 58
Slowest flit = 32307
Fragmentation average = 0
	minimum = 0
	maximum = 0
Injected packet rate average = 0.00975
	minimum = 0.007 (at node 1)
	maximum = 0.016 (at node 8)
Accepted packet rate average = 0.00975
	minimum = 0.007 (at node 13)
	maximum = 0.013 (at node 0)
Injected flit rate average = 0.00975
	minimum = 0.007 (at node 1)
	maximum = 0.016 (at node 8)
Accepted flit rate average= 0.00975
	minimum = 0.007 (at node 13)
	maximum = 0.013 (at node 0)
Injected packet length average = 1
Accepted packet length average = 1
Total in-flight flits = 4 (4 measured)
latency change    = 0.0170475
throughput change = 0.017094
Draining all recorded packets ...
Draining remaining packets ...
Time taken is 3551 cycles
Class 0:
Packet latency average = 21.4595
	minimum = 7
	maximum = 52
Network latency average = 21.4595
	minimum = 7
	maximum = 52
Slowest packet = 32388
Flit latency average = 21.4595
	minimum = 7
	maximum = 52
Slowest flit = 32388
Fragmentation average = 0
	minimum = 0
	maximum = 0
Injected packet rate average = 0.009625
	minimum = 0.004 (at node 12)
	maximum = 0.02 (at node 5)
Accepted packet rate average = 0.00925
	minimum = 0.006 (at node 0)
	maximum = 0.012 (at node 6)
Injected flit rate average = 0.009625
	minimum = 0.004 (at node 12)
	maximum = 0.02 (at node 5)
Accepted flit rate average= 0.00925
	minimum = 0.006 (at node 0)
	maximum = 0.012 (at node 6)
Injected packet length average = 1
Accepted packet length average = 1
Total in-flight flits = 3 (0 measured)
latency change    = 1
throughput change = 1
Class 0:
Packet latency average = 21.0979
	minimum = 7
	maximum = 52
Network latency average = 21.0979
	minimum = 7
	maximum = 52
Slowest packet = 32388
Flit latency average = 21.0979
	minimum = 7
	maximum = 52
Slowest flit = 32388
Fragmentation average = 0
	minimum = 0
	maximum = 0
Injected packet rate average = 0.0090625
	minimum = 0.005 (at node 3)
	maximum = 0.016 (at node 5)
Accepted packet rate average = 0.0089375
	minimum = 0.003 (at node 0)
	maximum = 0.013 (at node 3)
Injected flit rate average = 0.0090625
	minimum = 0.005 (at node 3)
	maximum = 0.016 (at node 5)
Accepted flit rate average= 0.0089375
	minimum = 0.003 (at node 0)
	maximum = 0.013 (at node 3)
Injected packet length average = 1
Accepted packet length average = 1
Total in-flight flits = 2 (0 measured)
latency change    = 0.0171371
throughput change = 0.034965
Class 0:
Packet latency average = 21.0476
	minimum = 7
	maximum = 57
Network latency average = 21.0476
	minimum = 7
	maximum = 57
Slowest packet = 32495
Flit latency average = 21.0476
	minimum = 7
	maximum = 57
Slowest flit = 32495
Fragmentation average = 0
	minimum = 0
	maximum = 0
Injected packet rate average = 0.010625
	minimum = 0.002 (at node 1)
	maximum = 0.018 (at node 2)
Accepted packet rate average = 0.0105
	minimum = 0.002 (at node 10)
	maximum = 0.022 (at node 6)
Injected flit rate average = 0.010625
	minimum = 0.002 (at node 1)
	maximum = 0.018 (at node 2)
Accepted flit rate average= 0.0105
	minimum = 0.002 (at node 10)
	maximum = 0.022 (at node 6)
Injected packet length average = 1
Accepted packet length average = 1
Total in-flight flits = 3 (0 measured)
latency change    = 0.00238901
throughput change = 0.14881
Warmed up ...Time used is 1500 cycles
Class 0:
Packet latency average = 19.3614
	minimum = 7
	maximum = 57
Network latency average = 19.3614
	minimum = 7
	maximum = 57
Slowest packet = 32622
Flit latency average = 19.686
	minimum = 7
	maximum = 57
Slowest flit = 32622
Fragmentation average = 0
	minimum = 0
	maximum = 0
Injected packet rate average = 0.01075
	minimum = 0.002 (at node 7)
	maximum = 0.018 (at node 2)
Accepted packet rate average = 0.01075
	minimum = 0.004 (at node 5)
	maximum = 0.018 (at node 0)
Injected flit rate average = 0.01075
	minimum = 0.002 (at node 7)
	maximum = 0.018 (at node 2)
Accepted flit rate average= 0.01075
	minimum = 0.004 (at node 5)
	maximum = 0.018 (at node 0)
Injected packet length average = 1
Accepted packet length average = 1
Total in-flight flits = 3 (3 measured)
latency change    = 0.0870892
throughput change = 0.0232558
Class 0:
Packet latency average = 20.3182
	minimum = 7
	maximum = 57
Network latency average = 20.3182
	minimum = 7
	maximum = 57
Slowest packet = 32622
Flit latency average = 20.4777
	minimum = 7
	maximum = 57
Slowest flit = 32622
Fragmentation average = 0
	minimum = 0
	maximum = 0
Injected packet rate average = 0.01
	minimum = 0.005 (at node 6)
	maximum = 0.015 (at node 0)
Accepted packet rate average = 0.0098125
	minimum = 0.003 (at node 5)
	maximum = 0.016 (at node 14)
Injected flit rate average = 0.01
	minimum = 0.005 (at node 6)
	maximum = 0.015 (at node 0)
Accepted flit rate average= 0.0098125
	minimum = 0.003 (at node 5)
	maximum = 0.016 (at node 14)
Injected packet length average = 1
Accepted packet length average = 1
Total in-flight flits = 6 (6 measured)
latency change    = 0.0470877
throughput change = 0.0955414
Class 0:
Packet latency average = 21.3433
	minimum = 7
	maximum = 57
Network latency average = 21.3433
	minimum = 7
	maximum = 57
Slowest packet = 32622
Flit latency average = 21.4364
	minimum = 7
	maximum = 57
Slowest flit = 32622
Fragmentation average = 0
	minimum = 0
	maximum = 0
Injected packet rate average = 0.009875
	minimum = 0.00533333 (at node 6)
	maximum = 0.0133333 (at node 0)
Accepted packet rate average = 0.00983333
	minimum = 0.00466667 (at node 11)
	maximum = 0.0153333 (at node 7)
Injected flit rate average = 0.009875
	minimum = 0.00533333 (at node 6)
	maximum = 0.0133333 (at node 0)
Accepted flit rate average= 0.00983333
	minimum = 0.00466667 (at node 11)
	maximum = 0.0153333 (at node 7)
Injected packet length average = 1
Accepted packet length average = 1
Total in-flight flits = 4 (4 measured)
latency change    = 0.0480321
throughput change = 0.00211864
Class 0:
Packet latency average = 21.0064
	minimum = 7
	maximum = 57
Network latency average = 21.0064
	minimum = 7
	maximum = 57
Slowest packet = 32622
Flit latency average = 21.0789
	minimum = 7
	maximum = 57
Slowest flit = 32622
Fragmentation average = 0
	minimum = 0
	maximum = 0
Injected packet rate average = 0.0099375
	minimum = 0.0065 (at node 6)
	maximum = 0.013 (at node 2)
Accepted packet rate average = 0.00990625
	minimum = 0.0055 (at node 3)
	maximum = 0.014 (at node 14)
Injected flit rate average = 0.0099375
	minimum = 0.0065 (at node 6)
	maximum = 0.013 (at node 2)
Accepted flit rate average= 0.00990625
	minimum = 0.0055 (at node 3)
	maximum = 0.014 (at node 14)
Injected packet length average = 1
Accepted packet length average = 1
Total in-flight flits = 4 (4 measured)
latency change    = 0.0160417
throughput change = 0.00736067
Class 0:
Packet latency average = 21.3359
	minimum = 7
	maximum = 57
Network latency average = 21.3359
	minimum = 7
	maximum = 57
Slowest packet = 32622
Flit latency average = 21.3914
	minimum = 7
	maximum = 57
Slowest flit = 32622
Fragmentation average = 0
	minimum = 0
	maximum = 0
Injected packet rate average = 0.009875
	minimum = 0.0056 (at node 6)
	maximum = 0.0128 (at node 2)
Accepted packet rate average = 0.0099
	minimum = 0.0056 (at node 3)
	maximum = 0.0128 (at node 7)
Injected flit rate average = 0.009875
	minimum = 0.0056 (at node 6)
	maximum = 0.0128 (at node 2)
Accepted flit rate average= 0.0099
	minimum = 0.0056 (at node 3)
	maximum = 0.0128 (at node 7)
Injected packet length average = 1
Accepted packet length average = 1
Total in-flight flits = 2 (2 measured)
latency change    = 0.0154439
throughput change = 0.000631313
Draining all recorded packets ...
Draining remaining packets ...
Time taken is 4039 cycles
Class 0:
Packet latency average = 21.058
	minimum = 7
	maximum = 57
Network latency average = 21.058
	minimum = 7
	maximum = 57
Slowest packet = 32999
Flit latency average = 21.058
	minimum = 7
	maximum = 57
Slowest flit = 32999
Fragmentation average = 0
	minimum = 0
	maximum = 0
Injected packet rate average = 0.00925
	minimum = 0.004 (at node 0)
	maximum = 0.016 (at node 7)
Accepted packet rate average = 0.008625
	minimum = 0.002 (at node 14)
	maximum = 0.02 (at node 9)
Injected flit rate average = 0.00925
	minimum = 0.004 (at node 0)
	maximum = 0.016 (at node 7)
Accepted flit rate average= 0.008625
	minimum = 0.002 (at node 14)
	maximum = 0.02 (at node 9)
Injected packet length average = 1
Accepted packet length average = 1
Total in-flight flits = 5 (0 measured)
latency change    = 1
throughput change = 1
Class 0:
Packet latency average = 21.2121
	minimum = 7
	maximum = 57
Network latency average = 21.2121
	minimum = 7
	maximum = 57
Slowest packet = 32999
Flit latency average = 21.2121
	minimum = 7
	maximum = 57
Slowest flit = 32999
Fragmentation average = 0
	minimum = 0
	maximum = 0
Injected packet rate average = 0.0085
	minimum = 0.005 (at node 13)
	maximum = 0.013 (at node 3)
Accepted packet rate average = 0.00825
	minimum = 0.004 (at node 1)
	maximum = 0.014 (at node 9)
Injected flit rate average = 0.0085
	minimum = 0.005 (at node 13)
	maximum = 0.013 (at node 3)
Accepted flit rate average= 0.00825
	minimum = 0.004 (at node 1)
	maximum = 0.014 (at node 9)
Injected packet length average = 1
Accepted packet length average = 1
Total in-flight flits = 4 (0 measured)
latency change    = 0.00726708
throughput change = 0.0454545
Class 0:
Packet latency average = 20.4878
	minimum = 7
	maximum = 58
Network latency average = 20.4878
	minimum = 7
	maximum = 58
Slowest packet = 33116
Flit latency average = 20.4878
	minimum = 7
	maximum = 58
Slowest flit = 33116
Fragmentation average = 0
	minimum = 0
	maximum = 0
Injected packet rate average = 0.009875
	minimum = 0.002 (at node 6)
	maximum = 0.02 (at node 10)
Accepted packet rate average = 0.01025
	minimum = 0.002 (at node 15)
	maximum = 0.018 (at node 4)
Injected flit rate average = 0.009875
	minimum = 0.002 (at node 6)
	maximum = 0.02 (at node 10)
Accepted flit rate average= 0.01025
	minimum = 0.002 (at node 15)
	maximum = 0.018 (at node 4)
Injected packet length average = 1
Accepted packet length average = 1
Total in-flight flits = 1 (0 measured)
latency change    = 0.0353535
throughput change = 0.195122
Warmed up ...Time used is 1500 cycles
Class 0:
Packet latency average = 23.0759
	minimum = 7
	maximum = 52
Network latency average = 23.0759
	minimum = 7
	maximum = 52
Slowest packet = 33191
Flit latency average = 23.125
	minimum = 7
	maximum = 52
Slowest flit = 33191
Fragmentation average = 0
	minimum = 0
	maximum = 0
Injected packet rate average = 0.01025
	minimum = 0.002 (at node 0)
	maximum = 0.02 (at node 15)
Accepted packet rate average = 0.01
	minimum = 0.004 (at node 10)
	maximum = 0.018 (at node 0)
Injected flit rate average = 0.01025
	minimum = 0.002 (at node 0)
	maximum = 0.02 (at node 15)
Accepted flit rate average= 0.01
	minimum = 0.004 (at node 10)
	maximum = 0.018 (at node 0)
Injected packet length average = 1
Accepted packet length average = 1
Total in-flight flits = 3 (3 measured)
latency change    = 0.112158
throughput change = 0.025
Class 0:
Packet latency average = 22.6849
	minimum = 7
	maximum = 55
Network latency average = 22.6849
	minimum = 7
	maximum = 55
Slowest packet = 33285
Flit latency average = 22.7143
	minimum = 7
	maximum = 55
Slowest flit = 33285
Fragmentation average = 0
	minimum = 0
	maximum = 0
Injected packet rate average = 0.00925
	minimum = 0.003 (at node 0)
	maximum = 0.013 (at node 4)
Accepted packet rate average = 0.0091875
	minimum = 0.005 (at node 1)
	maximum = 0.016 (at node 8)
Injected flit rate average = 0.00925
	minimum = 0.003 (at node 0)
	maximum = 0.013 (at node 4)
Accepted flit rate average= 0.0091875
	minimum = 0.005 (at node 1)
	maximum = 0.016 (at node 8)
Injected packet length average = 1
Accepted packet length average = 1
Total in-flight flits = 2 (2 measured)
latency change    = 0.0172369
throughput change = 0.0884354
Class 0:
Packet latency average = 22.3628
	minimum = 7
	maximum = 55
Network latency average = 22.3628
	minimum = 7
	maximum = 55
Slowest packet = 33285
Flit latency average = 22.3843
	minimum = 7
	maximum = 55
Slowest flit = 33285
Fragmentation average = 0
	minimum = 0
	maximum = 0
Injected packet rate average = 0.00916667
	minimum = 0.00466667 (at node 0)
	maximum = 0.0133333 (at node 15)
Accepted packet rate average = 0.009
	minimum = 0.00533333 (at node 1)
	maximum = 0.0126667 (at node 4)
Injected flit rate average = 0.00916667
	minimum = 0.00466667 (at node 0)
	maximum = 0.0133333 (at node 15)
Accepted flit rate average= 0.009
	minimum = 0.00533333 (at node 1)
	maximum = 0.0126667 (at node 4)
Injected packet length average = 1
Accepted packet length average = 1
Total in-flight flits = 5 (5 measured)
latency change    = 0.0144052
throughput change = 0.0208333
Class 0:
Packet latency average = 22.0782
	minimum = 7
	maximum = 55
Network latency average = 22.0782
	minimum = 7
	maximum = 55
Slowest packet = 33285
Flit latency average = 22.0942
	minimum = 7
	maximum = 55
Slowest flit = 33285
Fragmentation average = 0
	minimum = 0
	maximum = 0
Injected packet rate average = 0.00959375
	minimum = 0.006 (at node 0)
	maximum = 0.014 (at node 15)
Accepted packet rate average = 0.009625
	minimum = 0.006 (at node 5)
	maximum = 0.013 (at node 8)
Injected flit rate average = 0.00959375
	minimum = 0.006 (at node 0)
	maximum = 0.014 (at node 15)
Accepted flit rate average= 0.009625
	minimum = 0.006 (at node 5)
	maximum = 0.013 (at node 8)
Injected packet length average = 1
Accepted packet length average = 1
Total in-flight flits = 0 (0 measured)
latency change    = 0.0128912
throughput change = 0.0649351
Class 0:
Packet latency average = 22.0157
	minimum = 7
	maximum = 55
Network latency average = 22.0157
	minimum = 7
	maximum = 55
Slowest packet = 33285
Flit latency average = 22.0287
	minimum = 7
	maximum = 55
Slowest flit = 33285
Fragmentation average = 0
	minimum = 0
	maximum = 0
Injected packet rate average = 0.009625
	minimum = 0.0068 (at node 1)
	maximum = 0.0136 (at node 15)
Accepted packet rate average = 0.009575
	minimum = 0.006 (at node 5)
	maximum = 0.0128 (at node 8)
Injected flit rate average = 0.009625
	minimum = 0.0068 (at node 1)
	maximum = 0.0136 (at node 15)
Accepted flit rate average= 0.009575
	minimum = 0.006 (at node 5)
	maximum = 0.0128 (at node 8)
Injected packet length average = 1
Accepted packet length average = 1
Total in-flight flits = 3 (3 measured)
latency change    = 0.00283748
throughput change = 0.00522193
Class 0:
Packet latency average = 21.8739
	minimum = 7
	maximum = 63
Network latency average = 21.8739
	minimum = 7
	maximum = 63
Slowest packet = 33570
Flit latency average = 21.8849
	minimum = 7
	maximum = 63
Slowest flit = 33570
Fragmentation average = 0
	minimum = 0
	maximum = 0
Injected packet rate average = 0.00985417
	minimum = 0.00733333 (at node 10)
	maximum = 0.014 (at node 7)
Accepted packet rate average = 0.00977083
	minimum = 0.006 (at node 5)
	maximum = 0.0126667 (at node 8)
Injected flit rate average = 0.00985417
	minimum = 0.00733333 (at node 10)
	maximum = 0.014 (at node 7)
Accepted flit rate average= 0.00977083
	minimum = 0.006 (at node 5)
	maximum = 0.0126667 (at node 8)
Injected packet length average = 1
Accepted packet length average = 1
Total in-flight flits = 5 (5 measured)
latency change    = 0.00648147
throughput change = 0.0200426
Class 0:
Packet latency average = 21.942
	minimum = 7
	maximum = 63
Network latency average = 21.942
	minimum = 7
	maximum = 63
Slowest packet = 33570
Flit latency average = 21.9512
	minimum = 7
	maximum = 63
Slowest flit = 33570
Fragmentation average = 0
	minimum = 0
	maximum = 0
Injected packet rate average = 0.00992857
	minimum = 0.00714286 (at node 10)
	maximum = 0.0148571 (at node 7)
Accepted packet rate average = 0.009875
	minimum = 0.00628571 (at node 5)
	maximum = 0.0134286 (at node 8)
Injected flit rate average = 0.00992857
	minimum = 0.00714286 (at node 10)
	maximum = 0.0148571 (at node 7)
Accepted flit rate average= 0.009875
	minimum = 0.00628571 (at node 5)
	maximum = 0.0134286 (at node 8)
Injected packet length average = 1
Accepted packet length average = 1
Total in-flight flits = 4 (4 measured)
latency change    = 0.00310351
throughput change = 0.0105485
Draining all recorded packets ...
Draining remaining packets ...
Time taken is 5028 cycles
====== Overall Traffic Statistics ======
====== Traffic class 0 ======
Packet latency average = 21.8108 (50 samples)
	minimum = 7 (50 samples)
	maximum = 60 (50 samples)
Network latency average = 21.8108 (50 samples)
	minimum = 7 (50 samples)
	maximum = 60 (50 samples)
Flit latency average = 21.8377 (50 samples)
	minimum = 7 (50 samples)
	maximum = 60.16 (50 samples)
Fragmentation average = 0 (50 samples)
	minimum = 0 (50 samples)
	maximum = 0 (50 samples)
Injected packet rate average = 0.00992515 (50 samples)
	minimum = 0.006506 (50 samples)
	maximum = 0.0139304 (50 samples)
Accepted packet rate average = 0.00993688 (50 samples)
	minimum = 0.00666314 (50 samples)
	maximum = 0.0135124 (50 samples)
Injected flit rate average = 0.00992515 (50 samples)
	minimum = 0.006506 (50 samples)
	maximum = 0.0139304 (50 samples)
Accepted flit rate average = 0.00993688 (50 samples)
	minimum = 0.00666314 (50 samples)
	maximum = 0.0135124 (50 samples)
Injected packet size average = 1 (50 samples)
Accepted packet size average = 1 (50 samples)
Hops average = 3.93106 (50 samples)
Total run time 4.83127
