BEGIN Configuration File: /tmp/tmpz_mdrfrs.cfg
topology = mesh;
k = 4;
n = 2;
routing_function = planar_adapt;
num_vcs = 4;
vc_buf_size = 4;
wait_for_tail_credit = 1;
vc_allocator = islip;
sw_allocator = islip;
alloc_iters = 1;
credit_delay = 2;
routing_delay = 1;
vc_alloc_delay = 1;
sw_alloc_delay = 1;
input_speedup = 2;
output_speedup = 1;
internal_speedup = 1.0;
traffic = transpose;
packet_size = 1;
sim_type = latency;
injection_rate = 0.01;
warmup_periods = 3;
sample_period = 500;
sim_count = 50;
seed = 0;
link_failures = 2;
fail_seed = 202;

END Configuration File: /tmp/tmpz_mdrfrs.cfg
failure at node 4, channel 2 (1/2)
failure at node 13, channel 0 (2/2)
Class 0:
Packet latency average = 20.05
	minimum = 7
	maximum = 47
Network latency average = 20.05
	minimum = 7
	maximum = 47
Slowest packet = 1
Flit latency average = 20.05
	minimum = 7
	maximum = 47
Slowest flit = 1
Fragmentation average = 0
	minimum = 0
	maximum = 0
Injected packet rate average = 0.010375
	minimum = 0.004 (at node 5)
	maximum = 0.016 (at node 9)
Accepted packet rate average = 0.01
	minimum = 0.004 (at node 5)
	maximum = 0.016 (at node 6)
Injected flit rate average = 0.010375
	minimum = 0.004 (at node 5)
	maximum = 0.016 (at node 9)
Accepted flit rate average= 0.01
	minimum = 0.004 (at node 5)
	maximum = 0.016 (at node 6)
Injected packet length average = 1
Accepted packet length average = 1
Total in-flight flits = 3 (0 measured)
latency change    = 1
throughput change = 1
Class 0:
Packet latency average = 20.3896
	minimum = 7
	maximum = 47
Network latency average = 20.3896
	minimum = 7
	maximum = 47
Slowest packet = 1
Flit latency average = 20.3896
	minimum = 7
	maximum = 47
Slowest flit = 1
Fragmentation average = 0
	minimum = 0
	maximum = 0
Injected packet rate average = 0.00975
	minimum = 0.004 (at node 11)
	maximum = 0.014 (at node 13)
Accepted packet rate average = 0.009625
	minimum = 0.003 (at node 14)
	maximum = 0.014 (at node 7)
Injected flit rate average = 0.00975
	minimum = 0.004 (at node 11)
	maximum = 0.014 (at node 13)
Accepted flit rate average= 0.009625
	minimum = 0.003 (at node 14)
	maximum = 0.014 (at node 7)
Injected packet length average = 1
Accepted packet length average = 1
Total in-flight flits = 2 (0 measured)
latency change    = 0.0166561
throughput change = 0.038961
Class 0:
Packet latency average = 19.7971
	minimum = 7
	maximum = 48
Network latency average = 19.7971
	minimum = 7
	maximum = 48
Slowest packet = 158
Flit latency average = 19.7971
	minimum = 7
	maximum = 48
Slowest flit = 158
Fragmentation average = 0
	minimum = 0
	maximum = 0
Injected packet rate average = 0.00925
	minimum = 0.002 (at node 11)
	maximum = 0.016 (at node 10)
Accepted packet rate average = 0.008625
	minimum = 0.002 (at node 7)
	maximum = 0.016 (at node 10)
Injected flit rate average = 0.00925
	minimum = 0.002 (at node 11)
	maximum = 0.016 (at node 10)
Accepted flit rate average= 0.008625
	minimum = 0.002 (at node 7)
	maximum = 0.016 (at node 10)
Injected packet length average = 1
Accepted packet length average = 1
Total in-flight flits = 7 (0 measured)
latency change    = 0.0299291
throughput change = 0.115942
Warmed up ...Time used is 1500 cycles
Class 0:
Packet latency average = 23.0267
	minimum = 7
	maximum = 55
Network latency average = 23.0267
	minimum = 7
	maximum = 55
Slowest packet = 302
Flit latency average = 24.561
	minimum = 7
	maximum = 56
Slowest flit = 226
Fragmentation average = 0
	minimum = 0
	maximum = 0
Injected packet rate average = 0.00975
	minimum = 0.004 (at node 3)
	maximum = 0.018 (at node 8)
Accepted packet rate average = 0.01025
	minimum = 0.004 (at node 1)
	maximum = 0.02 (at node 8)
Injected flit rate average = 0.00975
	minimum = 0.004 (at node 3)
	maximum = 0.018 (at node 8)
Accepted flit rate average= 0.01025
	minimum = 0.004 (at node 1)
	maximum = 0.02 (at node 8)
Injected packet length average = 1
Accepted packet length average = 1
Total in-flight flits = 3 (3 measured)
latency change    = 0.140253
throughput change = 0.158537
Class 0:
Packet latency average = 22.0784
	minimum = 7
	maximum = 55
Network latency average = 22.0784
	minimum = 7
	maximum = 55
Slowest packet = 302
Flit latency average = 22.9062
	minimum = 7
	maximum = 56
Slowest flit = 226
Fragmentation average = 0
	minimum = 0
	maximum = 0
Injected packet rate average = 0.0096875
	minimum = 0.005 (at node 7)
	maximum = 0.016 (at node 13)
Accepted packet rate average = 0.01
	minimum = 0.005 (at node 13)
	maximum = 0.016 (at node 7)
Injected flit rate average = 0.0096875
	minimum = 0.005 (at node 7)
	maximum = 0.016 (at node 13)
Accepted flit rate average= 0.01
	minimum = 0.005 (at node 13)
	maximum = 0.016 (at node 7)
Injected packet length average = 1
Accepted packet length average = 1
Total in-flight flits = 2 (2 measured)
latency change    = 0.0429485
throughput change = 0.025
Class 0:
Packet latency average = 22.2194
	minimum = 7
	maximum = 55
Network latency average = 22.2194
	minimum = 7
	maximum = 55
Slowest packet = 302
Flit latency average = 22.7582
	minimum = 7
	maximum = 56
Slowest flit = 226
Fragmentation average = 0
	minimum = 0
	maximum = 0
Injected packet rate average = 0.00991667
	minimum = 0.00733333 (at node 7)
	maximum = 0.0133333 (at node 13)
Accepted packet rate average = 0.0101667
	minimum = 0.00666667 (at node 13)
	maximum = 0.0133333 (at node 7)
Injected flit rate average = 0.00991667
	minimum = 0.00733333 (at node 7)
	maximum = 0.0133333 (at node 13)
Accepted flit rate average= 0.0101667
	minimum = 0.00666667 (at node 13)
	maximum = 0.0133333 (at node 7)
Injected packet length average = 1
Accepted packet length average = 1
Total in-flight flits = 1 (1 measured)
latency change    = 0.00634481
throughput change = 0.0163934
Class 0:
Packet latency average = 21.8818
	minimum = 7
	maximum = 55
Network latency average = 21.8818
	minimum = 7
	maximum = 55
Slowest packet = 302
Flit latency average = 22.3
	minimum = 7
	maximum = 56
Slowest flit = 226
Fragmentation average = 0
	minimum = 0
	maximum = 0
Injected packet rate average = 0.00990625
	minimum = 0.0075 (at node 1)
	maximum = 0.013 (at node 8)
Accepted packet rate average = 0.01
	minimum = 0.0075 (at node 4)
	maximum = 0.013 (at node 2)
Injected flit rate average = 0.00990625
	minimum = 0.0075 (at node 1)
	maximum = 0.013 (at node 8)
Accepted flit rate average= 0.01
	minimum = 0.0075 (at node 4)
	maximum = 0.013 (at node 2)
Injected packet length average = 1
Accepted packet length average = 1
Total in-flight flits = 4 (4 measured)
latency change    = 0.0154293
throughput change = 0.0166667
Draining all recorded packets ...
Draining remaining packets ...
Time taken is 3564 cycles
Class 0:
Packet latency average = 20.6094
	minimum = 7
	maximum = 48
Network latency average = 20.6094
	minimum = 7
	maximum = 48
Slowest packet = 578
Flit latency average = 20.6094
	minimum = 7
	maximum = 48
Slowest flit = 578
Fragmentation average = 0
	minimum = 0
	maximum = 0
Injected packet rate average = 0.008
	minimum = 0.002 (at node 5)
	maximum = 0.016 (at node 11)
Accepted packet rate average = 0.008
	minimum = 0.002 (at node 5)
	maximum = 0.016 (at node 14)
Injected flit rate average = 0.008
	minimum = 0.002 (at node 5)
	maximum = 0.016 (at node 11)
Accepted flit rate average= 0.008
	minimum = 0.002 (at node 5)
	maximum = 0.016 (at node 14)
Injected packet length average = 1
Accepted packet length average = 1
Total in-flight flits = 0 (0 measured)
latency change    = 1
throughput change = 1
Class 0:
Packet latency average = 20.0845
	minimum = 7
	maximum = 49
Network latency average = 20.0845
	minimum = 7
	maximum = 49
Slowest packet = 629
Flit latency average = 20.0845
	minimum = 7
	maximum = 49
Slowest flit = 629
Fragmentation average = 0
	minimum = 0
	maximum = 0
Injected packet rate average = 0.009125
	minimum = 0.006 (at node 5)
	maximum = 0.017 (at node 10)
Accepted packet rate average = 0.008875
	minimum = 0.006 (at node 2)
	maximum = 0.017 (at node 10)
Injected flit rate average = 0.009125
	minimum = 0.006 (at node 5)
	maximum = 0.017 (at node 10)
Accepted flit rate average= 0.008875
	minimum = 0.006 (at node 2)
	maximum = 0.017 (at node 10)
Injected packet length average = 1
Accepted packet length average = 1
Total in-flight flits = 4 (0 measured)
latency change    = 0.026133
throughput change = 0.0985915
Class 0:
Packet latency average = 21.8841
	minimum = 7
	maximum = 55
Network latency average = 21.8841
	minimum = 7
	maximum = 55
Slowest packet = 751
Flit latency average = 21.8841
	minimum = 7
	maximum = 55
Slowest flit = 751
Fragmentation average = 0
	minimum = 0
	maximum = 0
Injected packet rate average = 0.008875
	minimum = 0.004 (at node 9)
	maximum = 0.016 (at node 6)
Accepted packet rate average = 0.008625
	minimum = 0.004 (at node 6)
	maximum = 0.016 (at node 9)
Injected flit rate average = 0.008875
	minimum = 0.004 (at node 9)
	maximum = 0.016 (at node 6)
Accepted flit rate average= 0.008625
	minimum = 0.004 (at node 6)
	maximum = 0.016 (at node 9)
Injected packet length average = 1
Accepted packet length average = 1
Total in-flight flits = 6 (0 measured)
latency change    = 0.0822311
throughput change = 0.0289855
Warmed up ...Time used is 1500 cycles
Class 0:
Packet latency average = 19.0128
	minimum = 7
	maximum = 51
Network latency average = 19.0128
	minimum = 7
	maximum = 51
Slowest packet = 793
Flit latency average = 19.4643
	minimum = 7
	maximum = 51
Slowest flit = 793
Fragmentation average = 0
	minimum = 0
	maximum = 0
Injected packet rate average = 0.01
	minimum = 0.002 (at node 2)
	maximum = 0.02 (at node 15)
Accepted packet rate average = 0.0105
	minimum = 0.002 (at node 8)
	maximum = 0.02 (at node 15)
Injected flit rate average = 0.01
	minimum = 0.002 (at node 2)
	maximum = 0.02 (at node 15)
Accepted flit rate average= 0.0105
	minimum = 0.002 (at node 8)
	maximum = 0.02 (at node 15)
Injected packet length average = 1
Accepted packet length average = 1
Total in-flight flits = 2 (2 measured)
latency change    = 0.151016
throughput change = 0.178571
Class 0:
Packet latency average = 21.3709
	minimum = 7
	maximum = 51
Network latency average = 21.3709
	minimum = 7
	maximum = 51
Slowest packet = 793
Flit latency average = 21.5223
	minimum = 7
	maximum = 51
Slowest flit = 793
Fragmentation average = 0
	minimum = 0
	maximum = 0
Injected packet rate average = 0.009875
	minimum = 0.004 (at node 6)
	maximum = 0.015 (at node 3)
Accepted packet rate average = 0.0098125
	minimum = 0.005 (at node 8)
	maximum = 0.015 (at node 12)
Injected flit rate average = 0.009875
	minimum = 0.004 (at node 6)
	maximum = 0.015 (at node 3)
Accepted flit rate average= 0.0098125
	minimum = 0.005 (at node 8)
	maximum = 0.015 (at node 12)
Injected packet length average = 1
Accepted packet length average = 1
Total in-flight flits = 7 (7 measured)
latency change    = 0.110339
throughput change = 0.0700637
Class 0:
Packet latency average = 21.6933
	minimum = 7
	maximum = 56
Network latency average = 21.6933
	minimum = 7
	maximum = 56
Slowest packet = 982
Flit latency average = 21.7828
	minimum = 7
	maximum = 56
Slowest flit = 982
Fragmentation average = 0
	minimum = 0
	maximum = 0
Injected packet rate average = 0.010375
	minimum = 0.00533333 (at node 10)
	maximum = 0.018 (at node 3)
Accepted packet rate average = 0.0101667
	minimum = 0.006 (at node 8)
	maximum = 0.016 (at node 12)
Injected flit rate average = 0.010375
	minimum = 0.00533333 (at node 10)
	maximum = 0.018 (at node 3)
Accepted flit rate average= 0.0101667
	minimum = 0.006 (at node 8)
	maximum = 0.016 (at node 12)
Injected packet length average = 1
Accepted packet length average = 1
Total in-flight flits = 11 (11 measured)
latency change    = 0.0148625
throughput change = 0.0348361
Class 0:
Packet latency average = 21.9103
	minimum = 7
	maximum = 58
Network latency average = 21.9103
	minimum = 7
	maximum = 58
Slowest packet = 1013
Flit latency average = 21.9748
	minimum = 7
	maximum = 58
Slowest flit = 1013
Fragmentation average = 0
	minimum = 0
	maximum = 0
Injected packet rate average = 0.0099375
	minimum = 0.006 (at node 2)
	maximum = 0.0165 (at node 13)
Accepted packet rate average = 0.0099375
	minimum = 0.0055 (at node 8)
	maximum = 0.0155 (at node 7)
Injected flit rate average = 0.0099375
	minimum = 0.006 (at node 2)
	maximum = 0.0165 (at node 13)
Accepted flit rate average= 0.0099375
	minimum = 0.0055 (at node 8)
	maximum = 0.0155 (at node 7)
Injected packet length average = 1
Accepted packet length average = 1
Total in-flight flits = 6 (6 measured)
latency change    = 0.00990308
throughput change = 0.0230608
Class 0:
Packet latency average = 21.901
	minimum = 7
	maximum = 58
Network latency average = 21.901
	minimum = 7
	maximum = 58
Slowest packet = 1013
Flit latency average = 21.9525
	minimum = 7
	maximum = 58
Slowest flit = 1013
Fragmentation average = 0
	minimum = 0
	maximum = 0
Injected packet rate average = 0.009975
	minimum = 0.0072 (at node 2)
	maximum = 0.0156 (at node 13)
Accepted packet rate average = 0.01
	minimum = 0.0068 (at node 8)
	maximum = 0.0156 (at node 7)
Injected flit rate average = 0.009975
	minimum = 0.0072 (at node 2)
	maximum = 0.0156 (at node 13)
Accepted flit rate average= 0.01
	minimum = 0.0068 (at node 8)
	maximum = 0.0156 (at node 7)
Injected packet length average = 1
Accepted packet length average = 1
Total in-flight flits = 5 (5 measured)
latency change    = 0.000421952
throughput change = 0.00625
Draining all recorded packets ...
Draining remaining packets ...
Time taken is 4069 cycles
Class 0:
Packet latency average = 19.5682
	minimum = 7
	maximum = 53
Network latency average = 19.5682
	minimum = 7
	maximum = 53
Slowest packet = 1195
Flit latency average = 19.5682
	minimum = 7
	maximum = 53
Slowest flit = 1195
Fragmentation average = 0
	minimum = 0
	maximum = 0
Injected packet rate average = 0.011125
	minimum = 0.004 (at node 2)
	maximum = 0.018 (at node 6)
Accepted packet rate average = 0.011
	minimum = 0.004 (at node 8)
	maximum = 0.018 (at node 9)
Injected flit rate average = 0.011125
	minimum = 0.004 (at node 2)
	maximum = 0.018 (at node 6)
Accepted flit rate average= 0.011
	minimum = 0.004 (at node 8)
	maximum = 0.018 (at node 9)
Injected packet length average = 1
Accepted packet length average = 1
Total in-flight flits = 1 (0 measured)
latency change    = 1
throughput change = 1
Class 0:
Packet latency average = 20.543
	minimum = 7
	maximum = 65
Network latency average = 20.543
	minimum = 7
	maximum = 65
Slowest packet = 1315
Flit latency average = 20.543
	minimum = 7
	maximum = 65
Slowest flit = 1315
Fragmentation average = 0
	minimum = 0
	maximum = 0
Injected packet rate average = 0.0116875
	minimum = 0.007 (at node 2)
	maximum = 0.017 (at node 6)
Accepted packet rate average = 0.011625
	minimum = 0.007 (at node 2)
	maximum = 0.017 (at node 9)
Injected flit rate average = 0.0116875
	minimum = 0.007 (at node 2)
	maximum = 0.017 (at node 6)
Accepted flit rate average= 0.011625
	minimum = 0.007 (at node 2)
	maximum = 0.017 (at node 9)
Injected packet length average = 1
Accepted packet length average = 1
Total in-flight flits = 1 (0 measured)
latency change    = 0.0474531
throughput change = 0.0537634
Class 0:
Packet latency average = 22.5287
	minimum = 7
	maximum = 66
Network latency average = 22.5287
	minimum = 7
	maximum = 66
Slowest packet = 1371
Flit latency average = 22.5287
	minimum = 7
	maximum = 66
Slowest flit = 1371
Fragmentation average = 0
	minimum = 0
	maximum = 0
Injected packet rate average = 0.011
	minimum = 0.004 (at node 5)
	maximum = 0.018 (at node 1)
Accepted packet rate average = 0.010875
	minimum = 0.004 (at node 5)
	maximum = 0.018 (at node 4)
Injected flit rate average = 0.011
	minimum = 0.004 (at node 5)
	maximum = 0.018 (at node 1)
Accepted flit rate average= 0.010875
	minimum = 0.004 (at node 5)
	maximum = 0.018 (at node 4)
Injected packet length average = 1
Accepted packet length average = 1
Total in-flight flits = 2 (0 measured)
latency change    = 0.0881419
throughput change = 0.0689655
Warmed up ...Time used is 1500 cycles
Class 0:
Packet latency average = 21.8082
	minimum = 7
	maximum = 48
Network latency average = 21.8082
	minimum = 7
	maximum = 48
Slowest packet = 1516
Flit latency average = 21.8133
	minimum = 7
	maximum = 48
Slowest flit = 1516
Fragmentation average = 0
	minimum = 0
	maximum = 0
Injected packet rate average = 0.009625
	minimum = 0.002 (at node 5)
	maximum = 0.02 (at node 7)
Accepted packet rate average = 0.009375
	minimum = 0.002 (at node 5)
	maximum = 0.02 (at node 13)
Injected flit rate average = 0.009625
	minimum = 0.002 (at node 5)
	maximum = 0.02 (at node 7)
Accepted flit rate average= 0.009375
	minimum = 0.002 (at node 5)
	maximum = 0.02 (at node 13)
Injected packet length average = 1
Accepted packet length average = 1
Total in-flight flits = 4 (4 measured)
latency change    = 0.0330388
throughput change = 0.16
Class 0:
Packet latency average = 21.965
	minimum = 7
	maximum = 53
Network latency average = 21.965
	minimum = 7
	maximum = 53
Slowest packet = 1574
Flit latency average = 21.9655
	minimum = 7
	maximum = 53
Slowest flit = 1574
Fragmentation average = 0
	minimum = 0
	maximum = 0
Injected packet rate average = 0.0090625
	minimum = 0.004 (at node 2)
	maximum = 0.015 (at node 7)
Accepted packet rate average = 0.0090625
	minimum = 0.004 (at node 8)
	maximum = 0.014 (at node 10)
Injected flit rate average = 0.0090625
	minimum = 0.004 (at node 2)
	maximum = 0.015 (at node 7)
Accepted flit rate average= 0.0090625
	minimum = 0.004 (at node 8)
	maximum = 0.014 (at node 10)
Injected packet length average = 1
Accepted packet length average = 1
Total in-flight flits = 2 (2 measured)
latency change    = 0.00713934
throughput change = 0.0344828
Class 0:
Packet latency average = 20.5385
	minimum = 7
	maximum = 53
Network latency average = 20.5385
	minimum = 7
	maximum = 53
Slowest packet = 1574
Flit latency average = 20.5516
	minimum = 7
	maximum = 53
Slowest flit = 1574
Fragmentation average = 0
	minimum = 0
	maximum = 0
Injected packet rate average = 0.00941667
	minimum = 0.004 (at node 2)
	maximum = 0.012 (at node 3)
Accepted packet rate average = 0.00929167
	minimum = 0.00333333 (at node 8)
	maximum = 0.012 (at node 12)
Injected flit rate average = 0.00941667
	minimum = 0.004 (at node 2)
	maximum = 0.012 (at node 3)
Accepted flit rate average= 0.00929167
	minimum = 0.00333333 (at node 8)
	maximum = 0.012 (at node 12)
Injected packet length average = 1
Accepted packet length average = 1
Total in-flight flits = 5 (5 measured)
latency change    = 0.0694586
throughput change = 0.0246637
Class 0:
Packet latency average = 20.6279
	minimum = 7
	maximum = 53
Network latency average = 20.6279
	minimum = 7
	maximum = 53
Slowest packet = 1574
Flit latency average = 20.637
	minimum = 7
	maximum = 53
Slowest flit = 1574
Fragmentation average = 0
	minimum = 0
	maximum = 0
Injected packet rate average = 0.0095
	minimum = 0.005 (at node 2)
	maximum = 0.012 (at node 1)
Accepted packet rate average = 0.00946875
	minimum = 0.005 (at node 8)
	maximum = 0.0125 (at node 4)
Injected flit rate average = 0.0095
	minimum = 0.005 (at node 2)
	maximum = 0.012 (at node 1)
Accepted flit rate average= 0.00946875
	minimum = 0.005 (at node 8)
	maximum = 0.0125 (at node 4)
Injected packet length average = 1
Accepted packet length average = 1
Total in-flight flits = 3 (3 measured)
latency change    = 0.00433614
throughput change = 0.0187019
Class 0:
Packet latency average = 21.0258
	minimum = 7
	maximum = 60
Network latency average = 21.0258
	minimum = 7
	maximum = 60
Slowest packet = 1759
Flit latency average = 21.0308
	minimum = 7
	maximum = 60
Slowest flit = 1759
Fragmentation average = 0
	minimum = 0
	maximum = 0
Injected packet rate average = 0.00975
	minimum = 0.0072 (at node 6)
	maximum = 0.0116 (at node 1)
Accepted packet rate average = 0.009725
	minimum = 0.0072 (at node 9)
	maximum = 0.012 (at node 4)
Injected flit rate average = 0.00975
	minimum = 0.0072 (at node 6)
	maximum = 0.0116 (at node 1)
Accepted flit rate average= 0.009725
	minimum = 0.0072 (at node 9)
	maximum = 0.012 (at node 4)
Injected packet length average = 1
Accepted packet length average = 1
Total in-flight flits = 3 (3 measured)
latency change    = 0.0189259
throughput change = 0.0263496
Class 0:
Packet latency average = 21.1607
	minimum = 7
	maximum = 60
Network latency average = 21.1607
	minimum = 7
	maximum = 60
Slowest packet = 1759
Flit latency average = 21.1642
	minimum = 7
	maximum = 60
Slowest flit = 1759
Fragmentation average = 0
	minimum = 0
	maximum = 0
Injected packet rate average = 0.00989583
	minimum = 0.00733333 (at node 6)
	maximum = 0.013 (at node 7)
Accepted packet rate average = 0.00989583
	minimum = 0.00733333 (at node 9)
	maximum = 0.013 (at node 13)
Injected flit rate average = 0.00989583
	minimum = 0.00733333 (at node 6)
	maximum = 0.013 (at node 7)
Accepted flit rate average= 0.00989583
	minimum = 0.00733333 (at node 9)
	maximum = 0.013 (at node 13)
Injected packet length average = 1
Accepted packet length average = 1
Total in-flight flits = 2 (2 measured)
latency change    = 0.00637204
throughput change = 0.0172632
Draining all recorded packets ...
Draining remaining packets ...
Time taken is 4549 cycles
Class 0:
Packet latency average = 22.7619
	minimum = 7
	maximum = 58
Network latency average = 22.7619
	minimum = 7
	maximum = 58
Slowest packet = 1966
Flit latency average = 22.7619
	minimum = 7
	maximum = 58
Slowest flit = 1966
Fragmentation average = 0
	minimum = 0
	maximum = 0
Injected packet rate average = 0.010625
	minimum = 0.004 (at node 9)
	maximum = 0.018 (at node 2)
Accepted packet rate average = 0.0105
	minimum = 0.004 (at node 6)
	maximum = 0.018 (at node 8)
Injected flit rate average = 0.010625
	minimum = 0.004 (at node 9)
	maximum = 0.018 (at node 2)
Accepted flit rate average= 0.0105
	minimum = 0.004 (at node 6)
	maximum = 0.018 (at node 8)
Injected packet length average = 1
Accepted packet length average = 1
Total in-flight flits = 1 (0 measured)
latency change    = 1
throughput change = 1
Class 0:
Packet latency average = 21.4911
	minimum = 7
	maximum = 58
Network latency average = 21.4911
	minimum = 7
	maximum = 58
Slowest packet = 1966
Flit latency average = 21.4911
	minimum = 7
	maximum = 58
Slowest flit = 1966
Fragmentation average = 0
	minimum = 0
	maximum = 0
Injected packet rate average = 0.01075
	minimum = 0.007 (at node 10)
	maximum = 0.015 (at node 2)
Accepted packet rate average = 0.0105625
	minimum = 0.007 (at node 10)
	maximum = 0.014 (at node 7)
Injected flit rate average = 0.01075
	minimum = 0.007 (at node 10)
	maximum = 0.015 (at node 2)
Accepted flit rate average= 0.0105625
	minimum = 0.007 (at node 10)
	maximum = 0.014 (at node 7)
Injected packet length average = 1
Accepted packet length average = 1
Total in-flight flits = 3 (0 measured)
latency change    = 0.0591305
throughput change = 0.00591716
Class 0:
Packet latency average = 21.8118
	minimum = 7
	maximum = 50
Network latency average = 21.8118
	minimum = 7
	maximum = 50
Slowest packet = 2137
Flit latency average = 21.8118
	minimum = 7
	maximum = 50
Slowest flit = 2137
Fragmentation average = 0
	minimum = 0
	maximum = 0
Injected packet rate average = 0.010875
	minimum = 0.002 (at node 14)
	maximum = 0.018 (at node 13)
Accepted packet rate average = 0.010625
	minimum = 0.002 (at node 11)
	maximum = 0.02 (at node 3)
Injected flit rate average = 0.010875
	minimum = 0.002 (at node 14)
	maximum = 0.018 (at node 13)
Accepted flit rate average= 0.010625
	minimum = 0.002 (at node 11)
	maximum = 0.02 (at node 3)
Injected packet length average = 1
Accepted packet length average = 1
Total in-flight flits = 5 (0 measured)
latency change    = 0.0147003
throughput change = 0.00588235
Warmed up ...Time used is 1500 cycles
Class 0:
Packet latency average = 19.125
	minimum = 7
	maximum = 51
Network latency average = 19.125
	minimum = 7
	maximum = 51
Slowest packet = 2194
Flit latency average = 19.971
	minimum = 7
	maximum = 54
Slowest flit = 2184
Fragmentation average = 0
	minimum = 0
	maximum = 0
Injected packet rate average = 0.00825
	minimum = 0.004 (at node 2)
	maximum = 0.012 (at node 15)
Accepted packet rate average = 0.008625
	minimum = 0.004 (at node 7)
	maximum = 0.012 (at node 13)
Injected flit rate average = 0.00825
	minimum = 0.004 (at node 2)
	maximum = 0.012 (at node 15)
Accepted flit rate average= 0.008625
	minimum = 0.004 (at node 7)
	maximum = 0.012 (at node 13)
Injected packet length average = 1
Accepted packet length average = 1
Total in-flight flits = 2 (2 measured)
latency change    = 0.140484
throughput change = 0.231884
Class 0:
Packet latency average = 20.0769
	minimum = 7
	maximum = 57
Network latency average = 20.0769
	minimum = 7
	maximum = 57
Slowest packet = 2253
Flit latency average = 20.4392
	minimum = 7
	maximum = 57
Slowest flit = 2253
Fragmentation average = 0
	minimum = 0
	maximum = 0
Injected packet rate average = 0.009125
	minimum = 0.007 (at node 1)
	maximum = 0.012 (at node 0)
Accepted packet rate average = 0.00925
	minimum = 0.007 (at node 3)
	maximum = 0.012 (at node 0)
Injected flit rate average = 0.009125
	minimum = 0.007 (at node 1)
	maximum = 0.012 (at node 0)
Accepted flit rate average= 0.00925
	minimum = 0.007 (at node 3)
	maximum = 0.012 (at node 0)
Injected packet length average = 1
Accepted packet length average = 1
Total in-flight flits = 3 (3 measured)
latency change    = 0.0474138
throughput change = 0.0675676
Class 0:
Packet latency average = 19.8372
	minimum = 7
	maximum = 57
Network latency average = 19.8372
	minimum = 7
	maximum = 57
Slowest packet = 2253
Flit latency average = 20.0864
	minimum = 7
	maximum = 57
Slowest flit = 2253
Fragmentation average = 0
	minimum = 0
	maximum = 0
Injected packet rate average = 0.00904167
	minimum = 0.006 (at node 12)
	maximum = 0.012 (at node 11)
Accepted packet rate average = 0.00916667
	minimum = 0.006 (at node 3)
	maximum = 0.012 (at node 13)
Injected flit rate average = 0.00904167
	minimum = 0.006 (at node 12)
	maximum = 0.012 (at node 11)
Accepted flit rate average= 0.00916667
	minimum = 0.006 (at node 3)
	maximum = 0.012 (at node 13)
Injected packet length average = 1
Accepted packet length average = 1
Total in-flight flits = 2 (2 measured)
latency change    = 0.012084
throughput change = 0.00909091
Class 0:
Packet latency average = 19.6723
	minimum = 7
	maximum = 57
Network latency average = 19.6723
	minimum = 7
	maximum = 57
Slowest packet = 2253
Flit latency average = 19.8571
	minimum = 7
	maximum = 57
Slowest flit = 2253
Fragmentation average = 0
	minimum = 0
	maximum = 0
Injected packet rate average = 0.00928125
	minimum = 0.006 (at node 3)
	maximum = 0.0115 (at node 5)
Accepted packet rate average = 0.00940625
	minimum = 0.0065 (at node 12)
	maximum = 0.012 (at node 13)
Injected flit rate average = 0.00928125
	minimum = 0.006 (at node 3)
	maximum = 0.0115 (at node 5)
Accepted flit rate average= 0.00940625
	minimum = 0.0065 (at node 12)
	maximum = 0.012 (at node 13)
Injected packet length average = 1
Accepted packet length average = 1
Total in-flight flits = 1 (1 measured)
latency change    = 0.00838296
throughput change = 0.0254707
Class 0:
Packet latency average = 20.0873
	minimum = 7
	maximum = 57
Network latency average = 20.0873
	minimum = 7
	maximum = 57
Slowest packet = 2253
Flit latency average = 20.2272
	minimum = 7
	maximum = 57
Slowest flit = 2253
Fragmentation average = 0
	minimum = 0
	maximum = 0
Injected packet rate average = 0.009525
	minimum = 0.0068 (at node 3)
	maximum = 0.012 (at node 5)
Accepted packet rate average = 0.009575
	minimum = 0.0068 (at node 12)
	maximum = 0.012 (at node 5)
Injected flit rate average = 0.009525
	minimum = 0.0068 (at node 3)
	maximum = 0.012 (at node 5)
Accepted flit rate average= 0.009575
	minimum = 0.0068 (at node 12)
	maximum = 0.012 (at node 5)
Injected packet length average = 1
Accepted packet length average = 1
Total in-flight flits = 3 (3 measured)
latency change    = 0.02066
throughput change = 0.017624
Draining all recorded packets ...
Draining remaining packets ...
Time taken is 4045 cycles
Class 0:
Packet latency average = 19.9114
	minimum = 7
	maximum = 47
Network latency average = 19.9114
	minimum = 7
	maximum = 47
Slowest packet = 2583
Flit latency average = 19.9114
	minimum = 7
	maximum = 47
Slowest flit = 2583
Fragmentation average = 0
	minimum = 0
	maximum = 0
Injected packet rate average = 0.01
	minimum = 0.004 (at node 11)
	maximum = 0.018 (at node 4)
Accepted packet rate average = 0.009875
	minimum = 0.004 (at node 14)
	maximum = 0.018 (at node 1)
Injected flit rate average = 0.01
	minimum = 0.004 (at node 11)
	maximum = 0.018 (at node 4)
Accepted flit rate average= 0.009875
	minimum = 0.004 (at node 14)
	maximum = 0.018 (at node 1)
Injected packet length average = 1
Accepted packet length average = 1
Total in-flight flits = 1 (0 measured)
latency change    = 1
throughput change = 1
Class 0:
Packet latency average = 21.4877
	minimum = 7
	maximum = 55
Network latency average = 21.4877
	minimum = 7
	maximum = 55
Slowest packet = 2717
Flit latency average = 21.4877
	minimum = 7
	maximum = 55
Slowest flit = 2717
Fragmentation average = 0
	minimum = 0
	maximum = 0
Injected packet rate average = 0.01025
	minimum = 0.005 (at node 7)
	maximum = 0.014 (at node 0)
Accepted packet rate average = 0.010125
	minimum = 0.005 (at node 13)
	maximum = 0.014 (at node 0)
Injected flit rate average = 0.01025
	minimum = 0.005 (at node 7)
	maximum = 0.014 (at node 0)
Accepted flit rate average= 0.010125
	minimum = 0.005 (at node 13)
	maximum = 0.014 (at node 0)
Injected packet length average = 1
Accepted packet length average = 1
Total in-flight flits = 2 (0 measured)
latency change    = 0.0733566
throughput change = 0.0246914
Class 0:
Packet latency average = 19.3492
	minimum = 7
	maximum = 47
Network latency average = 19.3492
	minimum = 7
	maximum = 47
Slowest packet = 2753
Flit latency average = 19.3492
	minimum = 7
	maximum = 47
Slowest flit = 2753
Fragmentation average = 0
	minimum = 0
	maximum = 0
Injected packet rate average = 0.008375
	minimum = 0.002 (at node 2)
	maximum = 0.016 (at node 11)
Accepted packet rate average = 0.007875
	minimum = 0.002 (at node 8)
	maximum = 0.016 (at node 14)
Injected flit rate average = 0.008375
	minimum = 0.002 (at node 2)
	maximum = 0.016 (at node 11)
Accepted flit rate average= 0.007875
	minimum = 0.002 (at node 8)
	maximum = 0.016 (at node 14)
Injected packet length average = 1
Accepted packet length average = 1
Total in-flight flits = 6 (0 measured)
latency change    = 0.110519
throughput change = 0.285714
Warmed up ...Time used is 1500 cycles
Class 0:
Packet latency average = 21.9861
	minimum = 7
	maximum = 47
Network latency average = 21.9861
	minimum = 7
	maximum = 47
Slowest packet = 2817
Flit latency average = 22.5256
	minimum = 7
	maximum = 47
Slowest flit = 2817
Fragmentation average = 0
	minimum = 0
	maximum = 0
Injected packet rate average = 0.009
	minimum = 0 (at node 10)
	maximum = 0.018 (at node 13)
Accepted packet rate average = 0.00975
	minimum = 0 (at node 10)
	maximum = 0.02 (at node 7)
Injected flit rate average = 0.009
	minimum = 0 (at node 10)
	maximum = 0.018 (at node 13)
Accepted flit rate average= 0.00975
	minimum = 0 (at node 10)
	maximum = 0.02 (at node 7)
Injected packet length average = 1
Accepted packet length average = 1
Total in-flight flits = 0 (0 measured)
latency change    = 0.119935
throughput change = 0.192308
Class 0:
Packet latency average = 21.4747
	minimum = 7
	maximum = 47
Network latency average = 21.4747
	minimum = 7
	maximum = 47
Slowest packet = 2817
Flit latency average = 21.75
	minimum = 7
	maximum = 47
Slowest flit = 2817
Fragmentation average = 0
	minimum = 0
	maximum = 0
Injected packet rate average = 0.0101875
	minimum = 0.004 (at node 9)
	maximum = 0.015 (at node 8)
Accepted packet rate average = 0.01025
	minimum = 0.004 (at node 6)
	maximum = 0.015 (at node 2)
Injected flit rate average = 0.0101875
	minimum = 0.004 (at node 9)
	maximum = 0.015 (at node 8)
Accepted flit rate average= 0.01025
	minimum = 0.004 (at node 6)
	maximum = 0.015 (at node 2)
Injected packet length average = 1
Accepted packet length average = 1
Total in-flight flits = 5 (5 measured)
latency change    = 0.0238154
throughput change = 0.0487805
Class 0:
Packet latency average = 20.8259
	minimum = 7
	maximum = 52
Network latency average = 20.8259
	minimum = 7
	maximum = 52
Slowest packet = 2987
Flit latency average = 21.0391
	minimum = 7
	maximum = 52
Slowest flit = 2987
Fragmentation average = 0
	minimum = 0
	maximum = 0
Injected packet rate average = 0.00941667
	minimum = 0.00266667 (at node 9)
	maximum = 0.0146667 (at node 11)
Accepted packet rate average = 0.00958333
	minimum = 0.00266667 (at node 6)
	maximum = 0.0146667 (at node 14)
Injected flit rate average = 0.00941667
	minimum = 0.00266667 (at node 9)
	maximum = 0.0146667 (at node 11)
Accepted flit rate average= 0.00958333
	minimum = 0.00266667 (at node 6)
	maximum = 0.0146667 (at node 14)
Injected packet length average = 1
Accepted packet length average = 1
Total in-flight flits = 2 (2 measured)
latency change    = 0.0311531
throughput change = 0.0695652
Class 0:
Packet latency average = 21.2475
	minimum = 7
	maximum = 52
Network latency average = 21.2475
	minimum = 7
	maximum = 52
Slowest packet = 2987
Flit latency average = 21.4
	minimum = 7
	maximum = 52
Slowest flit = 2987
Fragmentation average = 0
	minimum = 0
	maximum = 0
Injected packet rate average = 0.0095
	minimum = 0.0045 (at node 9)
	maximum = 0.014 (at node 11)
Accepted packet rate average = 0.00953125
	minimum = 0.0045 (at node 6)
	maximum = 0.013 (at node 14)
Injected flit rate average = 0.0095
	minimum = 0.0045 (at node 9)
	maximum = 0.014 (at node 11)
Accepted flit rate average= 0.00953125
	minimum = 0.0045 (at node 6)
	maximum = 0.013 (at node 14)
Injected packet length average = 1
Accepted packet length average = 1
Total in-flight flits = 5 (5 measured)
latency change    = 0.0198423
throughput change = 0.00546448
Class 0:
Packet latency average = 21.5462
	minimum = 7
	maximum = 63
Network latency average = 21.5462
	minimum = 7
	maximum = 63
Slowest packet = 3135
Flit latency average = 21.6658
	minimum = 7
	maximum = 63
Slowest flit = 3135
Fragmentation average = 0
	minimum = 0
	maximum = 0
Injected packet rate average = 0.009275
	minimum = 0.0048 (at node 9)
	maximum = 0.0132 (at node 11)
Accepted packet rate average = 0.00935
	minimum = 0.0048 (at node 6)
	maximum = 0.0132 (at node 14)
Injected flit rate average = 0.009275
	minimum = 0.0048 (at node 9)
	maximum = 0.0132 (at node 11)
Accepted flit rate average= 0.00935
	minimum = 0.0048 (at node 6)
	maximum = 0.0132 (at node 14)
Injected packet length average = 1
Accepted packet length average = 1
Total in-flight flits = 3 (3 measured)
latency change    = 0.0138634
throughput change = 0.019385
Class 0:
Packet latency average = 21.558
	minimum = 7
	maximum = 63
Network latency average = 21.558
	minimum = 7
	maximum = 63
Slowest packet = 3135
Flit latency average = 21.6564
	minimum = 7
	maximum = 63
Slowest flit = 3135
Fragmentation average = 0
	minimum = 0
	maximum = 0
Injected packet rate average = 0.0094375
	minimum = 0.00633333 (at node 2)
	maximum = 0.0116667 (at node 7)
Accepted packet rate average = 0.00945833
	minimum = 0.00633333 (at node 6)
	maximum = 0.0116667 (at node 2)
Injected flit rate average = 0.0094375
	minimum = 0.00633333 (at node 2)
	maximum = 0.0116667 (at node 7)
Accepted flit rate average= 0.00945833
	minimum = 0.00633333 (at node 6)
	maximum = 0.0116667 (at node 2)
Injected packet length average = 1
Accepted packet length average = 1
Total in-flight flits = 5 (5 measured)
latency change    = 0.000549218
throughput change = 0.0114537
Draining all recorded packets ...
Draining remaining packets ...
Time taken is 4560 cycles
Class 0:
Packet latency average = 21.5333
	minimum = 7
	maximum = 47
Network latency average = 21.5333
	minimum = 7
	maximum = 47
Slowest packet = 3279
Flit latency average = 21.5333
	minimum = 7
	maximum = 47
Slowest flit = 3279
Fragmentation average = 0
	minimum = 0
	maximum = 0
Injected packet rate average = 0.009625
	minimum = 0.002 (at node 5)
	maximum = 0.016 (at node 7)
Accepted packet rate average = 0.009375
	minimum = 0.002 (at node 5)
	maximum = 0.016 (at node 2)
Injected flit rate average = 0.009625
	minimum = 0.002 (at node 5)
	maximum = 0.016 (at node 7)
Accepted flit rate average= 0.009375
	minimum = 0.002 (at node 5)
	maximum = 0.016 (at node 2)
Injected packet length average = 1
Accepted packet length average = 1
Total in-flight flits = 2 (0 measured)
latency change    = 1
throughput change = 1
Class 0:
Packet latency average = 22.0429
	minimum = 7
	maximum = 53
Network latency average = 22.0429
	minimum = 7
	maximum = 53
Slowest packet = 3373
Flit latency average = 22.0429
	minimum = 7
	maximum = 53
Slowest flit = 3373
Fragmentation average = 0
	minimum = 0
	maximum = 0
Injected packet rate average = 0.010375
	minimum = 0.005 (at node 2)
	maximum = 0.017 (at node 12)
Accepted packet rate average = 0.0101875
	minimum = 0.005 (at node 5)
	maximum = 0.017 (at node 3)
Injected flit rate average = 0.010375
	minimum = 0.005 (at node 2)
	maximum = 0.017 (at node 12)
Accepted flit rate average= 0.0101875
	minimum = 0.005 (at node 5)
	maximum = 0.017 (at node 3)
Injected packet length average = 1
Accepted packet length average = 1
Total in-flight flits = 3 (0 measured)
latency change    = 0.023119
throughput change = 0.0797546
Class 0:
Packet latency average = 18.9438
	minimum = 7
	maximum = 47
Network latency average = 18.9438
	minimum = 7
	maximum = 47
Slowest packet = 3418
Flit latency average = 18.9438
	minimum = 7
	maximum = 47
Slowest flit = 3418
Fragmentation average = 0
	minimum = 0
	maximum = 0
Injected packet rate average = 0.011625
	minimum = 0.002 (at node 1)
	maximum = 0.024 (at node 14)
Accepted packet rate average = 0.011125
	minimum = 0.002 (at node 2)
	maximum = 0.02 (at node 11)
Injected flit rate average = 0.011625
	minimum = 0.002 (at node 1)
	maximum = 0.024 (at node 14)
Accepted flit rate average= 0.011125
	minimum = 0.002 (at node 2)
	maximum = 0.02 (at node 11)
Injected packet length average = 1
Accepted packet length average = 1
Total in-flight flits = 7 (0 measured)
latency change    = 0.163596
throughput change = 0.0842697
Warmed up ...Time used is 1500 cycles
Class 0:
Packet latency average = 18.8133
	minimum = 7
	maximum = 52
Network latency average = 18.8133
	minimum = 7
	maximum = 52
Slowest packet = 3537
Flit latency average = 19.7561
	minimum = 7
	maximum = 52
Slowest flit = 3537
Fragmentation average = 0
	minimum = 0
	maximum = 0
Injected packet rate average = 0.00975
	minimum = 0.004 (at node 12)
	maximum = 0.018 (at node 14)
Accepted packet rate average = 0.01025
	minimum = 0.004 (at node 3)
	maximum = 0.022 (at node 11)
Injected flit rate average = 0.00975
	minimum = 0.004 (at node 12)
	maximum = 0.018 (at node 14)
Accepted flit rate average= 0.01025
	minimum = 0.004 (at node 3)
	maximum = 0.022 (at node 11)
Injected packet length average = 1
Accepted packet length average = 1
Total in-flight flits = 3 (3 measured)
latency change    = 0.00693587
throughput change = 0.0853659
Class 0:
Packet latency average = 18.6269
	minimum = 7
	maximum = 52
Network latency average = 18.6269
	minimum = 7
	maximum = 52
Slowest packet = 3537
Flit latency average = 19.1844
	minimum = 7
	maximum = 52
Slowest flit = 3537
Fragmentation average = 0
	minimum = 0
	maximum = 0
Injected packet rate average = 0.0084375
	minimum = 0.004 (at node 2)
	maximum = 0.013 (at node 11)
Accepted packet rate average = 0.0088125
	minimum = 0.005 (at node 2)
	maximum = 0.012 (at node 5)
Injected flit rate average = 0.0084375
	minimum = 0.004 (at node 2)
	maximum = 0.013 (at node 11)
Accepted flit rate average= 0.0088125
	minimum = 0.005 (at node 2)
	maximum = 0.012 (at node 5)
Injected packet length average = 1
Accepted packet length average = 1
Total in-flight flits = 1 (1 measured)
latency change    = 0.0100107
throughput change = 0.163121
Class 0:
Packet latency average = 18.9559
	minimum = 7
	maximum = 53
Network latency average = 18.9559
	minimum = 7
	maximum = 53
Slowest packet = 3654
Flit latency average = 19.3175
	minimum = 7
	maximum = 53
Slowest flit = 3654
Fragmentation average = 0
	minimum = 0
	maximum = 0
Injected packet rate average = 0.00866667
	minimum = 0.004 (at node 2)
	maximum = 0.016 (at node 11)
Accepted packet rate average = 0.00879167
	minimum = 0.00466667 (at node 8)
	maximum = 0.016 (at node 14)
Injected flit rate average = 0.00866667
	minimum = 0.004 (at node 2)
	maximum = 0.016 (at node 11)
Accepted flit rate average= 0.00879167
	minimum = 0.00466667 (at node 8)
	maximum = 0.016 (at node 14)
Injected packet length average = 1
Accepted packet length average = 1
Total in-flight flits = 4 (4 measured)
latency change    = 0.017357
throughput change = 0.00236967
Class 0:
Packet latency average = 19.4188
	minimum = 7
	maximum = 53
Network latency average = 19.4188
	minimum = 7
	maximum = 53
Slowest packet = 3654
Flit latency average = 19.6761
	minimum = 7
	maximum = 53
Slowest flit = 3654
Fragmentation average = 0
	minimum = 0
	maximum = 0
Injected packet rate average = 0.00884375
	minimum = 0.005 (at node 2)
	maximum = 0.015 (at node 11)
Accepted packet rate average = 0.008875
	minimum = 0.005 (at node 8)
	maximum = 0.0145 (at node 14)
Injected flit rate average = 0.00884375
	minimum = 0.005 (at node 2)
	maximum = 0.015 (at node 11)
Accepted flit rate average= 0.008875
	minimum = 0.005 (at node 8)
	maximum = 0.0145 (at node 14)
Injected packet length average = 1
Accepted packet length average = 1
Total in-flight flits = 6 (6 measured)
latency change    = 0.0238373
throughput change = 0.00938967
Class 0:
Packet latency average = 19.7416
	minimum = 7
	maximum = 53
Network latency average = 19.7416
	minimum = 7
	maximum = 53
Slowest packet = 3654
Flit latency average = 19.9366
	minimum = 7
	maximum = 53
Slowest flit = 3654
Fragmentation average = 0
	minimum = 0
	maximum = 0
Injected packet rate average = 0.008975
	minimum = 0.0056 (at node 2)
	maximum = 0.0144 (at node 11)
Accepted packet rate average = 0.009075
	minimum = 0.006 (at node 8)
	maximum = 0.0144 (at node 14)
Injected flit rate average = 0.008975
	minimum = 0.0056 (at node 2)
	maximum = 0.0144 (at node 11)
Accepted flit rate average= 0.009075
	minimum = 0.006 (at node 8)
	maximum = 0.0144 (at node 14)
Injected packet length average = 1
Accepted packet length average = 1
Total in-flight flits = 3 (3 measured)
latency change    = 0.0163513
throughput change = 0.0220386
Draining all recorded packets ...
Draining remaining packets ...
Time taken is 4077 cycles
Class 0:
Packet latency average = 19.9853
	minimum = 7
	maximum = 54
Network latency average = 19.9853
	minimum = 7
	maximum = 54
Slowest packet = 3946
Flit latency average = 19.9853
	minimum = 7
	maximum = 54
Slowest flit = 3946
Fragmentation average = 0
	minimum = 0
	maximum = 0
Injected packet rate average = 0.009
	minimum = 0.002 (at node 10)
	maximum = 0.016 (at node 13)
Accepted packet rate average = 0.0085
	minimum = 0.002 (at node 10)
	maximum = 0.014 (at node 7)
Injected flit rate average = 0.009
	minimum = 0.002 (at node 10)
	maximum = 0.016 (at node 13)
Accepted flit rate average= 0.0085
	minimum = 0.002 (at node 10)
	maximum = 0.014 (at node 7)
Injected packet length average = 1
Accepted packet length average = 1
Total in-flight flits = 4 (0 measured)
latency change    = 1
throughput change = 1
Class 0:
Packet latency average = 21.2395
	minimum = 7
	maximum = 56
Network latency average = 21.2395
	minimum = 7
	maximum = 56
Slowest packet = 4003
Flit latency average = 21.2395
	minimum = 7
	maximum = 56
Slowest flit = 4003
Fragmentation average = 0
	minimum = 0
	maximum = 0
Injected packet rate average = 0.010625
	minimum = 0.004 (at node 12)
	maximum = 0.017 (at node 11)
Accepted packet rate average = 0.0104375
	minimum = 0.004 (at node 3)
	maximum = 0.017 (at node 14)
Injected flit rate average = 0.010625
	minimum = 0.004 (at node 12)
	maximum = 0.017 (at node 11)
Accepted flit rate average= 0.0104375
	minimum = 0.004 (at node 3)
	maximum = 0.017 (at node 14)
Injected packet length average = 1
Accepted packet length average = 1
Total in-flight flits = 3 (0 measured)
latency change    = 0.0590516
throughput change = 0.185629
Class 0:
Packet latency average = 20.5632
	minimum = 7
	maximum = 54
Network latency average = 20.5632
	minimum = 7
	maximum = 54
Slowest packet = 4039
Flit latency average = 20.5632
	minimum = 7
	maximum = 54
Slowest flit = 4039
Fragmentation average = 0
	minimum = 0
	maximum = 0
Injected packet rate average = 0.010625
	minimum = 0.004 (at node 14)
	maximum = 0.022 (at node 0)
Accepted packet rate average = 0.010875
	minimum = 0.004 (at node 11)
	maximum = 0.022 (at node 0)
Injected flit rate average = 0.010625
	minimum = 0.004 (at node 14)
	maximum = 0.022 (at node 0)
Accepted flit rate average= 0.010875
	minimum = 0.004 (at node 11)
	maximum = 0.022 (at node 0)
Injected packet length average = 1
Accepted packet length average = 1
Total in-flight flits = 1 (0 measured)
latency change    = 0.0328889
throughput change = 0.0402299
Warmed up ...Time used is 1500 cycles
Class 0:
Packet latency average = 22.7419
	minimum = 7
	maximum = 54
Network latency average = 22.7419
	minimum = 7
	maximum = 54
Slowest packet = 4186
Flit latency average = 22.6508
	minimum = 7
	maximum = 54
Slowest flit = 4186
Fragmentation average = 0
	minimum = 0
	maximum = 0
Injected packet rate average = 0.008625
	minimum = 0.002 (at node 6)
	maximum = 0.016 (at node 3)
Accepted packet rate average = 0.007875
	minimum = 0.002 (at node 9)
	maximum = 0.012 (at node 3)
Injected flit rate average = 0.008625
	minimum = 0.002 (at node 6)
	maximum = 0.016 (at node 3)
Accepted flit rate average= 0.007875
	minimum = 0.002 (at node 9)
	maximum = 0.012 (at node 3)
Injected packet length average = 1
Accepted packet length average = 1
Total in-flight flits = 7 (7 measured)
latency change    = 0.0958017
throughput change = 0.380952
Class 0:
Packet latency average = 21.7718
	minimum = 7
	maximum = 54
Network latency average = 21.7718
	minimum = 7
	maximum = 54
Slowest packet = 4186
Flit latency average = 21.74
	minimum = 7
	maximum = 54
Slowest flit = 4186
Fragmentation average = 0
	minimum = 0
	maximum = 0
Injected packet rate average = 0.0096875
	minimum = 0.005 (at node 7)
	maximum = 0.014 (at node 8)
Accepted packet rate average = 0.009375
	minimum = 0.005 (at node 13)
	maximum = 0.013 (at node 2)
Injected flit rate average = 0.0096875
	minimum = 0.005 (at node 7)
	maximum = 0.014 (at node 8)
Accepted flit rate average= 0.009375
	minimum = 0.005 (at node 13)
	maximum = 0.013 (at node 2)
Injected packet length average = 1
Accepted packet length average = 1
Total in-flight flits = 6 (6 measured)
latency change    = 0.0445587
throughput change = 0.16
Class 0:
Packet latency average = 21.6769
	minimum = 7
	maximum = 54
Network latency average = 21.6769
	minimum = 7
	maximum = 54
Slowest packet = 4186
Flit latency average = 21.6565
	minimum = 7
	maximum = 54
Slowest flit = 4186
Fragmentation average = 0
	minimum = 0
	maximum = 0
Injected packet rate average = 0.009625
	minimum = 0.006 (at node 7)
	maximum = 0.0153333 (at node 8)
Accepted packet rate average = 0.00958333
	minimum = 0.006 (at node 13)
	maximum = 0.0153333 (at node 2)
Injected flit rate average = 0.009625
	minimum = 0.006 (at node 7)
	maximum = 0.0153333 (at node 8)
Accepted flit rate average= 0.00958333
	minimum = 0.006 (at node 13)
	maximum = 0.0153333 (at node 2)
Injected packet length average = 1
Accepted packet length average = 1
Total in-flight flits = 2 (2 measured)
latency change    = 0.00438053
throughput change = 0.0217391
Class 0:
Packet latency average = 21.6013
	minimum = 7
	maximum = 54
Network latency average = 21.6013
	minimum = 7
	maximum = 54
Slowest packet = 4186
Flit latency average = 21.5863
	minimum = 7
	maximum = 54
Slowest flit = 4186
Fragmentation average = 0
	minimum = 0
	maximum = 0
Injected packet rate average = 0.009625
	minimum = 0.006 (at node 7)
	maximum = 0.013 (at node 8)
Accepted packet rate average = 0.00959375
	minimum = 0.006 (at node 13)
	maximum = 0.013 (at node 2)
Injected flit rate average = 0.009625
	minimum = 0.006 (at node 7)
	maximum = 0.013 (at node 8)
Accepted flit rate average= 0.00959375
	minimum = 0.006 (at node 13)
	maximum = 0.013 (at node 2)
Injected packet length average = 1
Accepted packet length average = 1
Total in-flight flits = 2 (2 measured)
latency change    = 0.00349741
throughput change = 0.00108578
Class 0:
Packet latency average = 21.2259
	minimum = 7
	maximum = 54
Network latency average = 21.2259
	minimum = 7
	maximum = 54
Slowest packet = 4186
Flit latency average = 21.2152
	minimum = 7
	maximum = 54
Slowest flit = 4186
Fragmentation average = 0
	minimum = 0
	maximum = 0
Injected packet rate average = 0.00985
	minimum = 0.0064 (at node 7)
	maximum = 0.0156 (at node 8)
Accepted packet rate average = 0.009875
	minimum = 0.0064 (at node 13)
	maximum = 0.0156 (at node 2)
Injected flit rate average = 0.00985
	minimum = 0.0064 (at node 7)
	maximum = 0.0156 (at node 8)
Accepted flit rate average= 0.009875
	minimum = 0.0064 (at node 13)
	maximum = 0.0156 (at node 2)
Injected packet length average = 1
Accepted packet length average = 1
Total in-flight flits = 0 (0 measured)
latency change    = 0.0176868
throughput change = 0.028481
Draining all recorded packets ...
Draining remaining packets ...
Time taken is 4001 cycles
Class 0:
Packet latency average = 18.8795
	minimum = 7
	maximum = 50
Network latency average = 18.8795
	minimum = 7
	maximum = 50
Slowest packet = 4599
Flit latency average = 18.8795
	minimum = 7
	maximum = 50
Slowest flit = 4599
Fragmentation average = 0
	minimum = 0
	maximum = 0
Injected packet rate average = 0.010875
	minimum = 0.004 (at node 2)
	maximum = 0.024 (at node 5)
Accepted packet rate average = 0.010375
	minimum = 0.004 (at node 8)
	maximum = 0.022 (at node 5)
Injected flit rate average = 0.010875
	minimum = 0.004 (at node 2)
	maximum = 0.024 (at node 5)
Accepted flit rate average= 0.010375
	minimum = 0.004 (at node 8)
	maximum = 0.022 (at node 5)
Injected packet length average = 1
Accepted packet length average = 1
Total in-flight flits = 4 (0 measured)
latency change    = 1
throughput change = 1
Class 0:
Packet latency average = 20.711
	minimum = 7
	maximum = 54
Network latency average = 20.711
	minimum = 7
	maximum = 54
Slowest packet = 4616
Flit latency average = 20.711
	minimum = 7
	maximum = 54
Slowest flit = 4616
Fragmentation average = 0
	minimum = 0
	maximum = 0
Injected packet rate average = 0.011
	minimum = 0.006 (at node 1)
	maximum = 0.021 (at node 5)
Accepted packet rate average = 0.0108125
	minimum = 0.006 (at node 4)
	maximum = 0.021 (at node 5)
Injected flit rate average = 0.011
	minimum = 0.006 (at node 1)
	maximum = 0.021 (at node 5)
Accepted flit rate average= 0.0108125
	minimum = 0.006 (at node 4)
	maximum = 0.021 (at node 5)
Injected packet length average = 1
Accepted packet length average = 1
Total in-flight flits = 3 (0 measured)
latency change    = 0.0884296
throughput change = 0.0404624
Class 0:
Packet latency average = 24.1846
	minimum = 7
	maximum = 56
Network latency average = 24.1846
	minimum = 7
	maximum = 56
Slowest packet = 4724
Flit latency average = 24.1846
	minimum = 7
	maximum = 56
Slowest flit = 4724
Fragmentation average = 0
	minimum = 0
	maximum = 0
Injected packet rate average = 0.008125
	minimum = 0.002 (at node 5)
	maximum = 0.012 (at node 2)
Accepted packet rate average = 0.008125
	minimum = 0.002 (at node 5)
	maximum = 0.014 (at node 3)
Injected flit rate average = 0.008125
	minimum = 0.002 (at node 5)
	maximum = 0.012 (at node 2)
Accepted flit rate average= 0.008125
	minimum = 0.002 (at node 5)
	maximum = 0.014 (at node 3)
Injected packet length average = 1
Accepted packet length average = 1
Total in-flight flits = 3 (0 measured)
latency change    = 0.14363
throughput change = 0.330769
Warmed up ...Time used is 1500 cycles
Class 0:
Packet latency average = 16.9
	minimum = 7
	maximum = 45
Network latency average = 16.9
	minimum = 7
	maximum = 45
Slowest packet = 4816
Flit latency average = 17.589
	minimum = 7
	maximum = 47
Slowest flit = 4769
Fragmentation average = 0
	minimum = 0
	maximum = 0
Injected packet rate average = 0.009625
	minimum = 0.002 (at node 3)
	maximum = 0.02 (at node 15)
Accepted packet rate average = 0.009125
	minimum = 0.002 (at node 3)
	maximum = 0.018 (at node 15)
Injected flit rate average = 0.009625
	minimum = 0.002 (at node 3)
	maximum = 0.02 (at node 15)
Accepted flit rate average= 0.009125
	minimum = 0.002 (at node 3)
	maximum = 0.018 (at node 15)
Injected packet length average = 1
Accepted packet length average = 1
Total in-flight flits = 7 (7 measured)
latency change    = 0.431042
throughput change = 0.109589
Class 0:
Packet latency average = 18.0373
	minimum = 7
	maximum = 54
Network latency average = 18.0373
	minimum = 7
	maximum = 54
Slowest packet = 4851
Flit latency average = 18.3232
	minimum = 7
	maximum = 54
Slowest flit = 4851
Fragmentation average = 0
	minimum = 0
	maximum = 0
Injected packet rate average = 0.0100625
	minimum = 0.004 (at node 3)
	maximum = 0.018 (at node 0)
Accepted packet rate average = 0.01025
	minimum = 0.004 (at node 6)
	maximum = 0.018 (at node 0)
Injected flit rate average = 0.0100625
	minimum = 0.004 (at node 3)
	maximum = 0.018 (at node 0)
Accepted flit rate average= 0.01025
	minimum = 0.004 (at node 6)
	maximum = 0.018 (at node 0)
Injected packet length average = 1
Accepted packet length average = 1
Total in-flight flits = 0 (0 measured)
latency change    = 0.063051
throughput change = 0.109756
Class 0:
Packet latency average = 18.9661
	minimum = 7
	maximum = 54
Network latency average = 18.9661
	minimum = 7
	maximum = 54
Slowest packet = 4851
Flit latency average = 19.1506
	minimum = 7
	maximum = 54
Slowest flit = 4851
Fragmentation average = 0
	minimum = 0
	maximum = 0
Injected packet rate average = 0.00995833
	minimum = 0.00533333 (at node 3)
	maximum = 0.0146667 (at node 10)
Accepted packet rate average = 0.00995833
	minimum = 0.006 (at node 9)
	maximum = 0.0146667 (at node 10)
Injected flit rate average = 0.00995833
	minimum = 0.00533333 (at node 3)
	maximum = 0.0146667 (at node 10)
Accepted flit rate average= 0.00995833
	minimum = 0.006 (at node 9)
	maximum = 0.0146667 (at node 10)
Injected packet length average = 1
Accepted packet length average = 1
Total in-flight flits = 3 (3 measured)
latency change    = 0.0489734
throughput change = 0.0292887
Class 0:
Packet latency average = 19.4724
	minimum = 7
	maximum = 56
Network latency average = 19.4724
	minimum = 7
	maximum = 56
Slowest packet = 5081
Flit latency average = 19.6018
	minimum = 7
	maximum = 56
Slowest flit = 5081
Fragmentation average = 0
	minimum = 0
	maximum = 0
Injected packet rate average = 0.010375
	minimum = 0.0075 (at node 3)
	maximum = 0.015 (at node 15)
Accepted packet rate average = 0.0102813
	minimum = 0.0075 (at node 9)
	maximum = 0.015 (at node 15)
Injected flit rate average = 0.010375
	minimum = 0.0075 (at node 3)
	maximum = 0.015 (at node 15)
Accepted flit rate average= 0.0102813
	minimum = 0.0075 (at node 9)
	maximum = 0.015 (at node 15)
Injected packet length average = 1
Accepted packet length average = 1
Total in-flight flits = 6 (6 measured)
latency change    = 0.0260004
throughput change = 0.0314083
Class 0:
Packet latency average = 19.8938
	minimum = 7
	maximum = 56
Network latency average = 19.8938
	minimum = 7
	maximum = 56
Slowest packet = 5081
Flit latency average = 19.9951
	minimum = 7
	maximum = 56
Slowest flit = 5081
Fragmentation average = 0
	minimum = 0
	maximum = 0
Injected packet rate average = 0.010225
	minimum = 0.0076 (at node 7)
	maximum = 0.014 (at node 15)
Accepted packet rate average = 0.0102
	minimum = 0.008 (at node 13)
	maximum = 0.014 (at node 15)
Injected flit rate average = 0.010225
	minimum = 0.0076 (at node 7)
	maximum = 0.014 (at node 15)
Accepted flit rate average= 0.0102
	minimum = 0.008 (at node 13)
	maximum = 0.014 (at node 15)
Injected packet length average = 1
Accepted packet length average = 1
Total in-flight flits = 4 (4 measured)
latency change    = 0.0211842
throughput change = 0.00796569
Draining all recorded packets ...
Draining remaining packets ...
Time taken is 4055 cycles
Class 0:
Packet latency average = 22.9688
	minimum = 7
	maximum = 47
Network latency average = 22.9688
	minimum = 7
	maximum = 47
Slowest packet = 5191
Flit latency average = 22.9688
	minimum = 7
	maximum = 47
Slowest flit = 5191
Fragmentation average = 0
	minimum = 0
	maximum = 0
Injected packet rate average = 0.008375
	minimum = 0.004 (at node 4)
	maximum = 0.014 (at node 3)
Accepted packet rate average = 0.008
	minimum = 0.004 (at node 1)
	maximum = 0.014 (at node 12)
Injected flit rate average = 0.008375
	minimum = 0.004 (at node 4)
	maximum = 0.014 (at node 3)
Accepted flit rate average= 0.008
	minimum = 0.004 (at node 1)
	maximum = 0.014 (at node 12)
Injected packet length average = 1
Accepted packet length average = 1
Total in-flight flits = 3 (0 measured)
latency change    = 1
throughput change = 1
Class 0:
Packet latency average = 22.3446
	minimum = 7
	maximum = 49
Network latency average = 22.3446
	minimum = 7
	maximum = 49
Slowest packet = 5263
Flit latency average = 22.3446
	minimum = 7
	maximum = 49
Slowest flit = 5263
Fragmentation average = 0
	minimum = 0
	maximum = 0
Injected packet rate average = 0.0094375
	minimum = 0.004 (at node 4)
	maximum = 0.015 (at node 12)
Accepted packet rate average = 0.00925
	minimum = 0.004 (at node 1)
	maximum = 0.015 (at node 3)
Injected flit rate average = 0.0094375
	minimum = 0.004 (at node 4)
	maximum = 0.015 (at node 12)
Accepted flit rate average= 0.00925
	minimum = 0.004 (at node 1)
	maximum = 0.015 (at node 3)
Injected packet length average = 1
Accepted packet length average = 1
Total in-flight flits = 3 (0 measured)
latency change    = 0.0279332
throughput change = 0.135135
Class 0:
Packet latency average = 23.4795
	minimum = 7
	maximum = 47
Network latency average = 23.4795
	minimum = 7
	maximum = 47
Slowest packet = 5343
Flit latency average = 23.4795
	minimum = 7
	maximum = 47
Slowest flit = 5343
Fragmentation average = 0
	minimum = 0
	maximum = 0
Injected packet rate average = 0.009
	minimum = 0.004 (at node 5)
	maximum = 0.016 (at node 12)
Accepted packet rate average = 0.009125
	minimum = 0.004 (at node 5)
	maximum = 0.016 (at node 3)
Injected flit rate average = 0.009
	minimum = 0.004 (at node 5)
	maximum = 0.016 (at node 12)
Accepted flit rate average= 0.009125
	minimum = 0.004 (at node 5)
	maximum = 0.016 (at node 3)
Injected packet length average = 1
Accepted packet length average = 1
Total in-flight flits = 2 (0 measured)
latency change    = 0.0483341
throughput change = 0.0136986
Warmed up ...Time used is 1500 cycles
Class 0:
Packet latency average = 21.3438
	minimum = 7
	maximum = 49
Network latency average = 21.3438
	minimum = 7
	maximum = 49
Slowest packet = 5421
Flit latency average = 21.8182
	minimum = 7
	maximum = 49
Slowest flit = 5421
Fragmentation average = 0
	minimum = 0
	maximum = 0
Injected packet rate average = 0.008375
	minimum = 0.004 (at node 11)
	maximum = 0.014 (at node 9)
Accepted packet rate average = 0.00825
	minimum = 0.004 (at node 8)
	maximum = 0.014 (at node 6)
Injected flit rate average = 0.008375
	minimum = 0.004 (at node 11)
	maximum = 0.014 (at node 9)
Accepted flit rate average= 0.00825
	minimum = 0.004 (at node 8)
	maximum = 0.014 (at node 6)
Injected packet length average = 1
Accepted packet length average = 1
Total in-flight flits = 3 (3 measured)
latency change    = 0.100062
throughput change = 0.106061
Class 0:
Packet latency average = 22.6454
	minimum = 7
	maximum = 49
Network latency average = 22.6454
	minimum = 7
	maximum = 49
Slowest packet = 5421
Flit latency average = 22.8462
	minimum = 7
	maximum = 49
Slowest flit = 5421
Fragmentation average = 0
	minimum = 0
	maximum = 0
Injected packet rate average = 0.0089375
	minimum = 0.004 (at node 0)
	maximum = 0.015 (at node 12)
Accepted packet rate average = 0.0089375
	minimum = 0.004 (at node 0)
	maximum = 0.015 (at node 3)
Injected flit rate average = 0.0089375
	minimum = 0.004 (at node 0)
	maximum = 0.015 (at node 12)
Accepted flit rate average= 0.0089375
	minimum = 0.004 (at node 0)
	maximum = 0.015 (at node 3)
Injected packet length average = 1
Accepted packet length average = 1
Total in-flight flits = 2 (2 measured)
latency change    = 0.0574793
throughput change = 0.0769231
Class 0:
Packet latency average = 21.5189
	minimum = 7
	maximum = 55
Network latency average = 21.5189
	minimum = 7
	maximum = 55
Slowest packet = 5562
Flit latency average = 21.6636
	minimum = 7
	maximum = 55
Slowest flit = 5562
Fragmentation average = 0
	minimum = 0
	maximum = 0
Injected packet rate average = 0.00904167
	minimum = 0.00466667 (at node 0)
	maximum = 0.0133333 (at node 12)
Accepted packet rate average = 0.00891667
	minimum = 0.004 (at node 0)
	maximum = 0.0126667 (at node 3)
Injected flit rate average = 0.00904167
	minimum = 0.00466667 (at node 0)
	maximum = 0.0133333 (at node 12)
Accepted flit rate average= 0.00891667
	minimum = 0.004 (at node 0)
	maximum = 0.0126667 (at node 3)
Injected packet length average = 1
Accepted packet length average = 1
Total in-flight flits = 5 (5 measured)
latency change    = 0.0523504
throughput change = 0.00233645
Class 0:
Packet latency average = 21.2939
	minimum = 7
	maximum = 55
Network latency average = 21.2939
	minimum = 7
	maximum = 55
Slowest packet = 5562
Flit latency average = 21.3993
	minimum = 7
	maximum = 55
Slowest flit = 5562
Fragmentation average = 0
	minimum = 0
	maximum = 0
Injected packet rate average = 0.00940625
	minimum = 0.0055 (at node 11)
	maximum = 0.0145 (at node 6)
Accepted packet rate average = 0.0093125
	minimum = 0.0055 (at node 14)
	maximum = 0.014 (at node 9)
Injected flit rate average = 0.00940625
	minimum = 0.0055 (at node 11)
	maximum = 0.0145 (at node 6)
Accepted flit rate average= 0.0093125
	minimum = 0.0055 (at node 14)
	maximum = 0.014 (at node 9)
Injected packet length average = 1
Accepted packet length average = 1
Total in-flight flits = 5 (5 measured)
latency change    = 0.010564
throughput change = 0.0425056
Class 0:
Packet latency average = 21.4822
	minimum = 7
	maximum = 55
Network latency average = 21.4822
	minimum = 7
	maximum = 55
Slowest packet = 5562
Flit latency average = 21.5668
	minimum = 7
	maximum = 55
Slowest flit = 5562
Fragmentation average = 0
	minimum = 0
	maximum = 0
Injected packet rate average = 0.00925
	minimum = 0.0056 (at node 11)
	maximum = 0.0128 (at node 13)
Accepted packet rate average = 0.009175
	minimum = 0.0056 (at node 14)
	maximum = 0.0124 (at node 7)
Injected flit rate average = 0.00925
	minimum = 0.0056 (at node 11)
	maximum = 0.0128 (at node 13)
Accepted flit rate average= 0.009175
	minimum = 0.0056 (at node 14)
	maximum = 0.0124 (at node 7)
Injected packet length average = 1
Accepted packet length average = 1
Total in-flight flits = 5 (5 measured)
latency change    = 0.00876414
throughput change = 0.0149864
Class 0:
Packet latency average = 21.4689
	minimum = 7
	maximum = 58
Network latency average = 21.4689
	minimum = 7
	maximum = 58
Slowest packet = 5832
Flit latency average = 21.5376
	minimum = 7
	maximum = 58
Slowest flit = 5832
Fragmentation average = 0
	minimum = 0
	maximum = 0
Injected packet rate average = 0.00952083
	minimum = 0.00533333 (at node 11)
	maximum = 0.0123333 (at node 13)
Accepted packet rate average = 0.00941667
	minimum = 0.00533333 (at node 14)
	maximum = 0.012 (at node 7)
Injected flit rate average = 0.00952083
	minimum = 0.00533333 (at node 11)
	maximum = 0.0123333 (at node 13)
Accepted flit rate average= 0.00941667
	minimum = 0.00533333 (at node 14)
	maximum = 0.012 (at node 7)
Injected packet length average = 1
Accepted packet length average = 1
Total in-flight flits = 7 (7 measured)
latency change    = 0.000619636
throughput change = 0.0256637
Draining all recorded packets ...
Draining remaining packets ...
Time taken is 4569 cycles
Class 0:
Packet latency average = 22.9206
	minimum = 7
	maximum = 48
Network latency average = 22.9206
	minimum = 7
	maximum = 48
Slowest packet = 5897
Flit latency average = 22.9206
	minimum = 7
	maximum = 48
Slowest flit = 5897
Fragmentation average = 0
	minimum = 0
	maximum = 0
Injected packet rate average = 0.008125
	minimum = 0.002 (at node 9)
	maximum = 0.018 (at node 12)
Accepted packet rate average = 0.007875
	minimum = 0.002 (at node 6)
	maximum = 0.016 (at node 3)
Injected flit rate average = 0.008125
	minimum = 0.002 (at node 9)
	maximum = 0.018 (at node 12)
Accepted flit rate average= 0.007875
	minimum = 0.002 (at node 6)
	maximum = 0.016 (at node 3)
Injected packet length average = 1
Accepted packet length average = 1
Total in-flight flits = 2 (0 measured)
latency change    = 1
throughput change = 1
Class 0:
Packet latency average = 21.5235
	minimum = 7
	maximum = 50
Network latency average = 21.5235
	minimum = 7
	maximum = 50
Slowest packet = 5981
Flit latency average = 21.5235
	minimum = 7
	maximum = 50
Slowest flit = 5981
Fragmentation average = 0
	minimum = 0
	maximum = 0
Injected packet rate average = 0.009625
	minimum = 0.004 (at node 9)
	maximum = 0.016 (at node 12)
Accepted packet rate average = 0.0093125
	minimum = 0.004 (at node 6)
	maximum = 0.015 (at node 3)
Injected flit rate average = 0.009625
	minimum = 0.004 (at node 9)
	maximum = 0.016 (at node 12)
Accepted flit rate average= 0.0093125
	minimum = 0.004 (at node 6)
	maximum = 0.015 (at node 3)
Injected packet length average = 1
Accepted packet length average = 1
Total in-flight flits = 5 (0 measured)
latency change    = 0.0649126
throughput change = 0.154362
Class 0:
Packet latency average = 20.3776
	minimum = 7
	maximum = 53
Network latency average = 20.3776
	minimum = 7
	maximum = 53
Slowest packet = 6104
Flit latency average = 20.3776
	minimum = 7
	maximum = 53
Slowest flit = 6104
Fragmentation average = 0
	minimum = 0
	maximum = 0
Injected packet rate average = 0.011875
	minimum = 0.004 (at node 1)
	maximum = 0.022 (at node 11)
Accepted packet rate average = 0.01225
	minimum = 0.004 (at node 3)
	maximum = 0.022 (at node 14)
Injected flit rate average = 0.011875
	minimum = 0.004 (at node 1)
	maximum = 0.022 (at node 11)
Accepted flit rate average= 0.01225
	minimum = 0.004 (at node 3)
	maximum = 0.022 (at node 14)
Injected packet length average = 1
Accepted packet length average = 1
Total in-flight flits = 2 (0 measured)
latency change    = 0.0562354
throughput change = 0.239796
Warmed up ...Time used is 1500 cycles
Class 0:
Packet latency average = 20.2877
	minimum = 7
	maximum = 47
Network latency average = 20.2877
	minimum = 7
	maximum = 47
Slowest packet = 6129
Flit latency average = 20.6
	minimum = 7
	maximum = 47
Slowest flit = 6116
Fragmentation average = 0
	minimum = 0
	maximum = 0
Injected packet rate average = 0.00925
	minimum = 0.002 (at node 2)
	maximum = 0.016 (at node 6)
Accepted packet rate average = 0.009375
	minimum = 0.002 (at node 7)
	maximum = 0.018 (at node 9)
Injected flit rate average = 0.00925
	minimum = 0.002 (at node 2)
	maximum = 0.016 (at node 6)
Accepted flit rate average= 0.009375
	minimum = 0.002 (at node 7)
	maximum = 0.018 (at node 9)
Injected packet length average = 1
Accepted packet length average = 1
Total in-flight flits = 1 (1 measured)
latency change    = 0.00443027
throughput change = 0.306667
Class 0:
Packet latency average = 19.4752
	minimum = 7
	maximum = 47
Network latency average = 19.4752
	minimum = 7
	maximum = 47
Slowest packet = 6129
Flit latency average = 19.6503
	minimum = 7
	maximum = 47
Slowest flit = 6116
Fragmentation average = 0
	minimum = 0
	maximum = 0
Injected packet rate average = 0.0089375
	minimum = 0.001 (at node 13)
	maximum = 0.015 (at node 6)
Accepted packet rate average = 0.0089375
	minimum = 0.001 (at node 7)
	maximum = 0.016 (at node 9)
Injected flit rate average = 0.0089375
	minimum = 0.001 (at node 13)
	maximum = 0.015 (at node 6)
Accepted flit rate average= 0.0089375
	minimum = 0.001 (at node 7)
	maximum = 0.016 (at node 9)
Injected packet length average = 1
Accepted packet length average = 1
Total in-flight flits = 2 (2 measured)
latency change    = 0.0417195
throughput change = 0.048951
Class 0:
Packet latency average = 20.7431
	minimum = 7
	maximum = 52
Network latency average = 20.7431
	minimum = 7
	maximum = 52
Slowest packet = 6314
Flit latency average = 20.8455
	minimum = 7
	maximum = 52
Slowest flit = 6314
Fragmentation average = 0
	minimum = 0
	maximum = 0
Injected packet rate average = 0.00941667
	minimum = 0.00533333 (at node 13)
	maximum = 0.012 (at node 6)
Accepted packet rate average = 0.00916667
	minimum = 0.00466667 (at node 7)
	maximum = 0.012 (at node 9)
Injected flit rate average = 0.00941667
	minimum = 0.00533333 (at node 13)
	maximum = 0.012 (at node 6)
Accepted flit rate average= 0.00916667
	minimum = 0.00466667 (at node 7)
	maximum = 0.012 (at node 9)
Injected packet length average = 1
Accepted packet length average = 1
Total in-flight flits = 8 (8 measured)
latency change    = 0.0611259
throughput change = 0.025
Class 0:
Packet latency average = 21.0762
	minimum = 7
	maximum = 64
Network latency average = 21.0762
	minimum = 7
	maximum = 64
Slowest packet = 6347
Flit latency average = 21.1451
	minimum = 7
	maximum = 64
Slowest flit = 6347
Fragmentation average = 0
	minimum = 0
	maximum = 0
Injected packet rate average = 0.00990625
	minimum = 0.006 (at node 13)
	maximum = 0.0135 (at node 0)
Accepted packet rate average = 0.00990625
	minimum = 0.006 (at node 7)
	maximum = 0.0135 (at node 0)
Injected flit rate average = 0.00990625
	minimum = 0.006 (at node 13)
	maximum = 0.0135 (at node 0)
Accepted flit rate average= 0.00990625
	minimum = 0.006 (at node 7)
	maximum = 0.0135 (at node 0)
Injected packet length average = 1
Accepted packet length average = 1
Total in-flight flits = 2 (2 measured)
latency change    = 0.0158032
throughput change = 0.0746583
Class 0:
Packet latency average = 20.8651
	minimum = 7
	maximum = 64
Network latency average = 20.8651
	minimum = 7
	maximum = 64
Slowest packet = 6347
Flit latency average = 20.9215
	minimum = 7
	maximum = 64
Slowest flit = 6347
Fragmentation average = 0
	minimum = 0
	maximum = 0
Injected packet rate average = 0.009825
	minimum = 0.006 (at node 5)
	maximum = 0.0132 (at node 0)
Accepted packet rate average = 0.009875
	minimum = 0.006 (at node 5)
	maximum = 0.0132 (at node 0)
Injected flit rate average = 0.009825
	minimum = 0.006 (at node 5)
	maximum = 0.0132 (at node 0)
Accepted flit rate average= 0.009875
	minimum = 0.006 (at node 5)
	maximum = 0.0132 (at node 0)
Injected packet length average = 1
Accepted packet length average = 1
Total in-flight flits = 0 (0 measured)
latency change    = 0.010115
throughput change = 0.00316456
Class 0:
Packet latency average = 21.0312
	minimum = 7
	maximum = 64
Network latency average = 21.0312
	minimum = 7
	maximum = 64
Slowest packet = 6347
Flit latency average = 21.0766
	minimum = 7
	maximum = 64
Slowest flit = 6347
Fragmentation average = 0
	minimum = 0
	maximum = 0
Injected packet rate average = 0.0100833
	minimum = 0.00633333 (at node 5)
	maximum = 0.014 (at node 7)
Accepted packet rate average = 0.0100625
	minimum = 0.00633333 (at node 5)
	maximum = 0.014 (at node 13)
Injected flit rate average = 0.0100833
	minimum = 0.00633333 (at node 5)
	maximum = 0.014 (at node 7)
Accepted flit rate average= 0.0100625
	minimum = 0.00633333 (at node 5)
	maximum = 0.014 (at node 13)
Injected packet length average = 1
Accepted packet length average = 1
Total in-flight flits = 3 (3 measured)
latency change    = 0.00789518
throughput change = 0.0186335
Class 0:
Packet latency average = 21.3089
	minimum = 7
	maximum = 64
Network latency average = 21.3089
	minimum = 7
	maximum = 64
Slowest packet = 6347
Flit latency average = 21.347
	minimum = 7
	maximum = 64
Slowest flit = 6347
Fragmentation average = 0
	minimum = 0
	maximum = 0
Injected packet rate average = 0.0100536
	minimum = 0.008 (at node 5)
	maximum = 0.0134286 (at node 7)
Accepted packet rate average = 0.0100357
	minimum = 0.008 (at node 5)
	maximum = 0.0131429 (at node 13)
Injected flit rate average = 0.0100536
	minimum = 0.008 (at node 5)
	maximum = 0.0134286 (at node 7)
Accepted flit rate average= 0.0100357
	minimum = 0.008 (at node 5)
	maximum = 0.0131429 (at node 13)
Injected packet length average = 1
Accepted packet length average = 1
Total in-flight flits = 3 (3 measured)
latency change    = 0.0130341
throughput change = 0.00266904
Draining all recorded packets ...
Draining remaining packets ...
Time taken is 5053 cycles
Class 0:
Packet latency average = 21.3026
	minimum = 7
	maximum = 47
Network latency average = 21.3026
	minimum = 7
	maximum = 47
Slowest packet = 6704
Flit latency average = 21.3026
	minimum = 7
	maximum = 47
Slowest flit = 6704
Fragmentation average = 0
	minimum = 0
	maximum = 0
Injected packet rate average = 0.00975
	minimum = 0.004 (at node 9)
	maximum = 0.014 (at node 3)
Accepted packet rate average = 0.0095
	minimum = 0.004 (at node 6)
	maximum = 0.014 (at node 3)
Injected flit rate average = 0.00975
	minimum = 0.004 (at node 9)
	maximum = 0.014 (at node 3)
Accepted flit rate average= 0.0095
	minimum = 0.004 (at node 6)
	maximum = 0.014 (at node 3)
Injected packet length average = 1
Accepted packet length average = 1
Total in-flight flits = 2 (0 measured)
latency change    = 1
throughput change = 1
Class 0:
Packet latency average = 20.6456
	minimum = 7
	maximum = 55
Network latency average = 20.6456
	minimum = 7
	maximum = 55
Slowest packet = 6837
Flit latency average = 20.6456
	minimum = 7
	maximum = 55
Slowest flit = 6837
Fragmentation average = 0
	minimum = 0
	maximum = 0
Injected packet rate average = 0.01
	minimum = 0.005 (at node 13)
	maximum = 0.014 (at node 1)
Accepted packet rate average = 0.009875
	minimum = 0.004 (at node 7)
	maximum = 0.014 (at node 4)
Injected flit rate average = 0.01
	minimum = 0.005 (at node 13)
	maximum = 0.014 (at node 1)
Accepted flit rate average= 0.009875
	minimum = 0.004 (at node 7)
	maximum = 0.014 (at node 4)
Injected packet length average = 1
Accepted packet length average = 1
Total in-flight flits = 2 (0 measured)
latency change    = 0.0318258
throughput change = 0.0379747
Class 0:
Packet latency average = 22.1127
	minimum = 7
	maximum = 47
Network latency average = 22.1127
	minimum = 7
	maximum = 47
Slowest packet = 6856
Flit latency average = 22.1127
	minimum = 7
	maximum = 47
Slowest flit = 6856
Fragmentation average = 0
	minimum = 0
	maximum = 0
Injected packet rate average = 0.008875
	minimum = 0.006 (at node 1)
	maximum = 0.012 (at node 3)
Accepted packet rate average = 0.008875
	minimum = 0.006 (at node 2)
	maximum = 0.012 (at node 1)
Injected flit rate average = 0.008875
	minimum = 0.006 (at node 1)
	maximum = 0.012 (at node 3)
Accepted flit rate average= 0.008875
	minimum = 0.006 (at node 2)
	maximum = 0.012 (at node 1)
Injected packet length average = 1
Accepted packet length average = 1
Total in-flight flits = 2 (0 measured)
latency change    = 0.0663469
throughput change = 0.112676
Warmed up ...Time used is 1500 cycles
Class 0:
Packet latency average = 18.0824
	minimum = 7
	maximum = 62
Network latency average = 18.0824
	minimum = 7
	maximum = 62
Slowest packet = 6948
Flit latency average = 18.1724
	minimum = 7
	maximum = 62
Slowest flit = 6948
Fragmentation average = 0
	minimum = 0
	maximum = 0
Injected packet rate average = 0.01075
	minimum = 0.002 (at node 11)
	maximum = 0.02 (at node 14)
Accepted packet rate average = 0.010875
	minimum = 0.002 (at node 14)
	maximum = 0.02 (at node 11)
Injected flit rate average = 0.01075
	minimum = 0.002 (at node 11)
	maximum = 0.02 (at node 14)
Accepted flit rate average= 0.010875
	minimum = 0.002 (at node 14)
	maximum = 0.02 (at node 11)
Injected packet length average = 1
Accepted packet length average = 1
Total in-flight flits = 1 (1 measured)
latency change    = 0.222887
throughput change = 0.183908
Class 0:
Packet latency average = 20.2216
	minimum = 7
	maximum = 62
Network latency average = 20.2216
	minimum = 7
	maximum = 62
Slowest packet = 6948
Flit latency average = 20.2426
	minimum = 7
	maximum = 62
Slowest flit = 6948
Fragmentation average = 0
	minimum = 0
	maximum = 0
Injected packet rate average = 0.01075
	minimum = 0.007 (at node 11)
	maximum = 0.016 (at node 14)
Accepted packet rate average = 0.0105625
	minimum = 0.007 (at node 12)
	maximum = 0.016 (at node 11)
Injected flit rate average = 0.01075
	minimum = 0.007 (at node 11)
	maximum = 0.016 (at node 14)
Accepted flit rate average= 0.0105625
	minimum = 0.007 (at node 12)
	maximum = 0.016 (at node 11)
Injected packet length average = 1
Accepted packet length average = 1
Total in-flight flits = 5 (5 measured)
latency change    = 0.105788
throughput change = 0.0295858
Class 0:
Packet latency average = 20.2058
	minimum = 7
	maximum = 62
Network latency average = 20.2058
	minimum = 7
	maximum = 62
Slowest packet = 6948
Flit latency average = 20.2204
	minimum = 7
	maximum = 62
Slowest flit = 6948
Fragmentation average = 0
	minimum = 0
	maximum = 0
Injected packet rate average = 0.01025
	minimum = 0.00533333 (at node 12)
	maximum = 0.016 (at node 14)
Accepted packet rate average = 0.0102083
	minimum = 0.006 (at node 3)
	maximum = 0.016 (at node 11)
Injected flit rate average = 0.01025
	minimum = 0.00533333 (at node 12)
	maximum = 0.016 (at node 14)
Accepted flit rate average= 0.0102083
	minimum = 0.006 (at node 3)
	maximum = 0.016 (at node 11)
Injected packet length average = 1
Accepted packet length average = 1
Total in-flight flits = 3 (3 measured)
latency change    = 0.000781736
throughput change = 0.0346939
Class 0:
Packet latency average = 19.9971
	minimum = 7
	maximum = 62
Network latency average = 19.9971
	minimum = 7
	maximum = 62
Slowest packet = 6948
Flit latency average = 20.0086
	minimum = 7
	maximum = 62
Slowest flit = 6948
Fragmentation average = 0
	minimum = 0
	maximum = 0
Injected packet rate average = 0.0109062
	minimum = 0.006 (at node 12)
	maximum = 0.0155 (at node 15)
Accepted packet rate average = 0.0108437
	minimum = 0.006 (at node 3)
	maximum = 0.016 (at node 15)
Injected flit rate average = 0.0109062
	minimum = 0.006 (at node 12)
	maximum = 0.0155 (at node 15)
Accepted flit rate average= 0.0108437
	minimum = 0.006 (at node 3)
	maximum = 0.016 (at node 15)
Injected packet length average = 1
Accepted packet length average = 1
Total in-flight flits = 4 (4 measured)
latency change    = 0.0104345
throughput change = 0.0585975
Class 0:
Packet latency average = 20.3799
	minimum = 7
	maximum = 65
Network latency average = 20.3799
	minimum = 7
	maximum = 65
Slowest packet = 7302
Flit latency average = 20.3872
	minimum = 7
	maximum = 65
Slowest flit = 7302
Fragmentation average = 0
	minimum = 0
	maximum = 0
Injected packet rate average = 0.010975
	minimum = 0.0048 (at node 12)
	maximum = 0.0156 (at node 15)
Accepted packet rate average = 0.010975
	minimum = 0.0052 (at node 3)
	maximum = 0.016 (at node 15)
Injected flit rate average = 0.010975
	minimum = 0.0048 (at node 12)
	maximum = 0.0156 (at node 15)
Accepted flit rate average= 0.010975
	minimum = 0.0052 (at node 3)
	maximum = 0.016 (at node 15)
Injected packet length average = 1
Accepted packet length average = 1
Total in-flight flits = 2 (2 measured)
latency change    = 0.0187813
throughput change = 0.011959
Class 0:
Packet latency average = 20.6634
	minimum = 7
	maximum = 65
Network latency average = 20.6634
	minimum = 7
	maximum = 65
Slowest packet = 7302
Flit latency average = 20.6686
	minimum = 7
	maximum = 65
Slowest flit = 7302
Fragmentation average = 0
	minimum = 0
	maximum = 0
Injected packet rate average = 0.0108542
	minimum = 0.006 (at node 12)
	maximum = 0.0143333 (at node 14)
Accepted packet rate average = 0.0108125
	minimum = 0.00633333 (at node 3)
	maximum = 0.0146667 (at node 15)
Injected flit rate average = 0.0108542
[...]
	maximum = 58
Network latency average = 22
	minimum = 7
	maximum = 58
Slowest packet = 31920
Flit latency average = 22.6301
	minimum = 7
	maximum = 58
Slowest flit = 31920
Fragmentation average = 0
	minimum = 0
	maximum = 0
Injected packet rate average = 0.009125
	minimum = 0.002 (at node 0)
	maximum = 0.018 (at node 10)
Accepted packet rate average = 0.009125
	minimum = 0.002 (at node 0)
	maximum = 0.016 (at node 4)
Injected flit rate average = 0.009125
	minimum = 0.002 (at node 0)
	maximum = 0.018 (at node 10)
Accepted flit rate average= 0.009125
	minimum = 0.002 (at node 0)
	maximum = 0.016 (at node 4)
Injected packet length average = 1
Accepted packet length average = 1
Total in-flight flits = 3 (3 measured)
latency change    = 0.0698287
throughput change = 0.0547945
Class 0:
Packet latency average = 20.5417
	minimum = 7
	maximum = 58
Network latency average = 20.5417
	minimum = 7
	maximum = 58
Slowest packet = 31920
Flit latency average = 20.8844
	minimum = 7
	maximum = 58
Slowest flit = 31920
Fragmentation average = 0
	minimum = 0
	maximum = 0
Injected packet rate average = 0.00925
	minimum = 0.005 (at node 6)
	maximum = 0.016 (at node 10)
Accepted packet rate average = 0.0091875
	minimum = 0.005 (at node 9)
	maximum = 0.016 (at node 10)
Injected flit rate average = 0.00925
	minimum = 0.005 (at node 6)
	maximum = 0.016 (at node 10)
Accepted flit rate average= 0.0091875
	minimum = 0.005 (at node 9)
	maximum = 0.016 (at node 10)
Injected packet length average = 1
Accepted packet length average = 1
Total in-flight flits = 4 (4 measured)
latency change    = 0.0709939
throughput change = 0.00680272
Class 0:
Packet latency average = 20.4505
	minimum = 7
	maximum = 58
Network latency average = 20.4505
	minimum = 7
	maximum = 58
Slowest packet = 31920
Flit latency average = 20.6756
	minimum = 7
	maximum = 58
Slowest flit = 31920
Fragmentation average = 0
	minimum = 0
	maximum = 0
Injected packet rate average = 0.00945833
	minimum = 0.00733333 (at node 11)
	maximum = 0.0146667 (at node 10)
Accepted packet rate average = 0.009375
	minimum = 0.00733333 (at node 14)
	maximum = 0.0146667 (at node 10)
Injected flit rate average = 0.00945833
	minimum = 0.00733333 (at node 11)
	maximum = 0.0146667 (at node 10)
Accepted flit rate average= 0.009375
	minimum = 0.00733333 (at node 14)
	maximum = 0.0146667 (at node 10)
Injected packet length average = 1
Accepted packet length average = 1
Total in-flight flits = 5 (5 measured)
latency change    = 0.00446035
throughput change = 0.02
Class 0:
Packet latency average = 20.7542
	minimum = 7
	maximum = 58
Network latency average = 20.7542
	minimum = 7
	maximum = 58
Slowest packet = 31920
Flit latency average = 20.92
	minimum = 7
	maximum = 58
Slowest flit = 31920
Fragmentation average = 0
	minimum = 0
	maximum = 0
Injected packet rate average = 0.00940625
	minimum = 0.0075 (at node 11)
	maximum = 0.014 (at node 10)
Accepted packet rate average = 0.009375
	minimum = 0.0075 (at node 14)
	maximum = 0.014 (at node 10)
Injected flit rate average = 0.00940625
	minimum = 0.0075 (at node 11)
	maximum = 0.014 (at node 10)
Accepted flit rate average= 0.009375
	minimum = 0.0075 (at node 14)
	maximum = 0.014 (at node 10)
Injected packet length average = 1
Accepted packet length average = 1
Total in-flight flits = 4 (4 measured)
latency change    = 0.014636
throughput change = 0
Class 0:
Packet latency average = 21.362
	minimum = 7
	maximum = 59
Network latency average = 21.362
	minimum = 7
	maximum = 59
Slowest packet = 32290
Flit latency average = 21.4858
	minimum = 7
	maximum = 59
Slowest flit = 32290
Fragmentation average = 0
	minimum = 0
	maximum = 0
Injected packet rate average = 0.009675
	minimum = 0.008 (at node 0)
	maximum = 0.014 (at node 10)
Accepted packet rate average = 0.009675
	minimum = 0.008 (at node 0)
	maximum = 0.014 (at node 10)
Injected flit rate average = 0.009675
	minimum = 0.008 (at node 0)
	maximum = 0.014 (at node 10)
Accepted flit rate average= 0.009675
	minimum = 0.008 (at node 0)
	maximum = 0.014 (at node 10)
Injected packet length average = 1
Accepted packet length average = 1
Total in-flight flits = 3 (3 measured)
latency change    = 0.028451
throughput change = 0.0310078
Draining all recorded packets ...
Draining remaining packets ...
Time taken is 4036 cycles
Class 0:
Packet latency average = 20.0769
	minimum = 7
	maximum = 47
Network latency average = 20.0769
	minimum = 7
	maximum = 47
Slowest packet = 32326
Flit latency average = 20.0769
	minimum = 7
	maximum = 47
Slowest flit = 32326
Fragmentation average = 0
	minimum = 0
	maximum = 0
Injected packet rate average = 0.009875
	minimum = 0.002 (at node 3)
	maximum = 0.026 (at node 8)
Accepted packet rate average = 0.00975
	minimum = 0.002 (at node 12)
	maximum = 0.024 (at node 2)
Injected flit rate average = 0.009875
	minimum = 0.002 (at node 3)
	maximum = 0.026 (at node 8)
Accepted flit rate average= 0.00975
	minimum = 0.002 (at node 12)
	maximum = 0.024 (at node 2)
Injected packet length average = 1
Accepted packet length average = 1
Total in-flight flits = 1 (0 measured)
latency change    = 1
throughput change = 1
Class 0:
Packet latency average = 19.7535
	minimum = 7
	maximum = 52
Network latency average = 19.7535
	minimum = 7
	maximum = 52
Slowest packet = 32409
Flit latency average = 19.7535
	minimum = 7
	maximum = 52
Slowest flit = 32409
Fragmentation average = 0
	minimum = 0
	maximum = 0
Injected packet rate average = 0.009125
	minimum = 0.006 (at node 0)
	maximum = 0.016 (at node 5)
Accepted packet rate average = 0.008875
	minimum = 0.005 (at node 12)
	maximum = 0.016 (at node 2)
Injected flit rate average = 0.009125
	minimum = 0.006 (at node 0)
	maximum = 0.016 (at node 5)
Accepted flit rate average= 0.008875
	minimum = 0.005 (at node 12)
	maximum = 0.016 (at node 2)
Injected packet length average = 1
Accepted packet length average = 1
Total in-flight flits = 4 (0 measured)
latency change    = 0.0163719
throughput change = 0.0985915
Class 0:
Packet latency average = 20.9885
	minimum = 7
	maximum = 54
Network latency average = 20.9885
	minimum = 7
	maximum = 54
Slowest packet = 32500
Flit latency average = 20.9885
	minimum = 7
	maximum = 54
Slowest flit = 32500
Fragmentation average = 0
	minimum = 0
	maximum = 0
Injected packet rate average = 0.010625
	minimum = 0.004 (at node 1)
	maximum = 0.024 (at node 9)
Accepted packet rate average = 0.010875
	minimum = 0.004 (at node 4)
	maximum = 0.024 (at node 6)
Injected flit rate average = 0.010625
	minimum = 0.004 (at node 1)
	maximum = 0.024 (at node 9)
Accepted flit rate average= 0.010875
	minimum = 0.004 (at node 4)
	maximum = 0.024 (at node 6)
Injected packet length average = 1
Accepted packet length average = 1
Total in-flight flits = 2 (0 measured)
latency change    = 0.058841
throughput change = 0.183908
Warmed up ...Time used is 1500 cycles
Class 0:
Packet latency average = 22.0357
	minimum = 7
	maximum = 55
Network latency average = 22.0357
	minimum = 7
	maximum = 55
Slowest packet = 32551
Flit latency average = 22.0349
	minimum = 7
	maximum = 55
Slowest flit = 32551
Fragmentation average = 0
	minimum = 0
	maximum = 0
Injected packet rate average = 0.011
	minimum = 0.004 (at node 1)
	maximum = 0.022 (at node 2)
Accepted packet rate average = 0.01075
	minimum = 0.004 (at node 4)
	maximum = 0.022 (at node 8)
Injected flit rate average = 0.011
	minimum = 0.004 (at node 1)
	maximum = 0.022 (at node 2)
Accepted flit rate average= 0.01075
	minimum = 0.004 (at node 4)
	maximum = 0.022 (at node 8)
Injected packet length average = 1
Accepted packet length average = 1
Total in-flight flits = 4 (4 measured)
latency change    = 0.0475232
throughput change = 0.0116279
Class 0:
Packet latency average = 21.6581
	minimum = 7
	maximum = 55
Network latency average = 21.6581
	minimum = 7
	maximum = 55
Slowest packet = 32551
Flit latency average = 21.6624
	minimum = 7
	maximum = 55
Slowest flit = 32551
Fragmentation average = 0
	minimum = 0
	maximum = 0
Injected packet rate average = 0.0099375
	minimum = 0.006 (at node 1)
	maximum = 0.017 (at node 2)
Accepted packet rate average = 0.0098125
	minimum = 0.006 (at node 2)
	maximum = 0.017 (at node 8)
Injected flit rate average = 0.0099375
	minimum = 0.006 (at node 1)
	maximum = 0.017 (at node 2)
Accepted flit rate average= 0.0098125
	minimum = 0.006 (at node 2)
	maximum = 0.017 (at node 8)
Injected packet length average = 1
Accepted packet length average = 1
Total in-flight flits = 4 (4 measured)
latency change    = 0.0174369
throughput change = 0.0955414
Class 0:
Packet latency average = 21.3718
	minimum = 7
	maximum = 55
Network latency average = 21.3718
	minimum = 7
	maximum = 55
Slowest packet = 32551
Flit latency average = 21.3771
	minimum = 7
	maximum = 55
Slowest flit = 32551
Fragmentation average = 0
	minimum = 0
	maximum = 0
Injected packet rate average = 0.00979167
	minimum = 0.006 (at node 6)
	maximum = 0.014 (at node 2)
Accepted packet rate average = 0.00983333
	minimum = 0.006 (at node 9)
	maximum = 0.014 (at node 8)
Injected flit rate average = 0.00979167
	minimum = 0.006 (at node 6)
	maximum = 0.014 (at node 2)
Accepted flit rate average= 0.00983333
	minimum = 0.006 (at node 9)
	maximum = 0.014 (at node 8)
Injected packet length average = 1
Accepted packet length average = 1
Total in-flight flits = 1 (1 measured)
latency change    = 0.0133947
throughput change = 0.00211864
Class 0:
Packet latency average = 21.3172
	minimum = 7
	maximum = 55
Network latency average = 21.3172
	minimum = 7
	maximum = 55
Slowest packet = 32551
Flit latency average = 21.3215
	minimum = 7
	maximum = 55
Slowest flit = 32551
Fragmentation average = 0
	minimum = 0
	maximum = 0
Injected packet rate average = 0.00975
	minimum = 0.0065 (at node 6)
	maximum = 0.014 (at node 2)
Accepted packet rate average = 0.00971875
	minimum = 0.0065 (at node 9)
	maximum = 0.014 (at node 8)
Injected flit rate average = 0.00975
	minimum = 0.0065 (at node 6)
	maximum = 0.014 (at node 2)
Accepted flit rate average= 0.00971875
	minimum = 0.0065 (at node 9)
	maximum = 0.014 (at node 8)
Injected packet length average = 1
Accepted packet length average = 1
Total in-flight flits = 3 (3 measured)
latency change    = 0.00256332
throughput change = 0.0117899
Class 0:
Packet latency average = 21.6843
	minimum = 7
	maximum = 61
Network latency average = 21.6843
	minimum = 7
	maximum = 61
Slowest packet = 32878
Flit latency average = 21.6859
	minimum = 7
	maximum = 61
Slowest flit = 32878
Fragmentation average = 0
	minimum = 0
	maximum = 0
Injected packet rate average = 0.0099
	minimum = 0.0064 (at node 6)
	maximum = 0.014 (at node 2)
Accepted packet rate average = 0.00995
	minimum = 0.0064 (at node 7)
	maximum = 0.0144 (at node 8)
Injected flit rate average = 0.0099
	minimum = 0.0064 (at node 6)
	maximum = 0.014 (at node 2)
Accepted flit rate average= 0.00995
	minimum = 0.0064 (at node 7)
	maximum = 0.0144 (at node 8)
Injected packet length average = 1
Accepted packet length average = 1
Total in-flight flits = 0 (0 measured)
latency change    = 0.0169335
throughput change = 0.0232412
Draining all recorded packets ...
Draining remaining packets ...
Time taken is 4001 cycles
Class 0:
Packet latency average = 20.6901
	minimum = 7
	maximum = 49
Network latency average = 20.6901
	minimum = 7
	maximum = 49
Slowest packet = 32936
Flit latency average = 20.6901
	minimum = 7
	maximum = 49
Slowest flit = 32936
Fragmentation average = 0
	minimum = 0
	maximum = 0
Injected packet rate average = 0.00925
	minimum = 0.002 (at node 4)
	maximum = 0.016 (at node 7)
Accepted packet rate average = 0.008875
	minimum = 0.002 (at node 1)
	maximum = 0.014 (at node 13)
Injected flit rate average = 0.00925
	minimum = 0.002 (at node 4)
	maximum = 0.016 (at node 7)
Accepted flit rate average= 0.008875
	minimum = 0.002 (at node 1)
	maximum = 0.014 (at node 13)
Injected packet length average = 1
Accepted packet length average = 1
Total in-flight flits = 3 (0 measured)
latency change    = 1
throughput change = 1
Class 0:
Packet latency average = 21.2621
	minimum = 7
	maximum = 55
Network latency average = 21.2621
	minimum = 7
	maximum = 55
Slowest packet = 33057
Flit latency average = 21.2621
	minimum = 7
	maximum = 55
Slowest flit = 33057
Fragmentation average = 0
	minimum = 0
	maximum = 0
Injected packet rate average = 0.0091875
	minimum = 0.007 (at node 0)
	maximum = 0.015 (at node 11)
Accepted packet rate average = 0.0090625
	minimum = 0.007 (at node 0)
	maximum = 0.015 (at node 14)
Injected flit rate average = 0.0091875
	minimum = 0.007 (at node 0)
	maximum = 0.015 (at node 11)
Accepted flit rate average= 0.0090625
	minimum = 0.007 (at node 0)
	maximum = 0.015 (at node 14)
Injected packet length average = 1
Accepted packet length average = 1
Total in-flight flits = 2 (0 measured)
latency change    = 0.026899
throughput change = 0.0206897
Class 0:
Packet latency average = 21.4493
	minimum = 7
	maximum = 47
Network latency average = 21.4493
	minimum = 7
	maximum = 47
Slowest packet = 33078
Flit latency average = 21.4493
	minimum = 7
	maximum = 47
Slowest flit = 33078
Fragmentation average = 0
	minimum = 0
	maximum = 0
Injected packet rate average = 0.009
	minimum = 0.004 (at node 15)
	maximum = 0.02 (at node 10)
Accepted packet rate average = 0.008625
	minimum = 0.004 (at node 7)
	maximum = 0.02 (at node 10)
Injected flit rate average = 0.009
	minimum = 0.004 (at node 15)
	maximum = 0.02 (at node 10)
Accepted flit rate average= 0.008625
	minimum = 0.004 (at node 7)
	maximum = 0.02 (at node 10)
Injected packet length average = 1
Accepted packet length average = 1
Total in-flight flits = 5 (0 measured)
latency change    = 0.00872787
throughput change = 0.0507246
Warmed up ...Time used is 1500 cycles
Class 0:
Packet latency average = 21.1013
	minimum = 7
	maximum = 48
Network latency average = 21.1013
	minimum = 7
	maximum = 48
Slowest packet = 33213
Flit latency average = 22.2738
	minimum = 7
	maximum = 64
Slowest flit = 33139
Fragmentation average = 0
	minimum = 0
	maximum = 0
Injected packet rate average = 0.01
	minimum = 0.006 (at node 0)
	maximum = 0.016 (at node 12)
Accepted packet rate average = 0.0105
	minimum = 0.004 (at node 11)
	maximum = 0.016 (at node 3)
Injected flit rate average = 0.01
	minimum = 0.006 (at node 0)
	maximum = 0.016 (at node 12)
Accepted flit rate average= 0.0105
	minimum = 0.004 (at node 11)
	maximum = 0.016 (at node 3)
Injected packet length average = 1
Accepted packet length average = 1
Total in-flight flits = 1 (1 measured)
latency change    = 0.0164924
throughput change = 0.178571
Class 0:
Packet latency average = 21.4805
	minimum = 7
	maximum = 62
Network latency average = 21.4805
	minimum = 7
	maximum = 62
Slowest packet = 33241
Flit latency average = 22.0881
	minimum = 7
	maximum = 64
Slowest flit = 33139
Fragmentation average = 0
	minimum = 0
	maximum = 0
Injected packet rate average = 0.0098125
	minimum = 0.004 (at node 0)
	maximum = 0.014 (at node 12)
Accepted packet rate average = 0.0099375
	minimum = 0.004 (at node 0)
	maximum = 0.014 (at node 3)
Injected flit rate average = 0.0098125
	minimum = 0.004 (at node 0)
	maximum = 0.014 (at node 12)
Accepted flit rate average= 0.0099375
	minimum = 0.004 (at node 0)
	maximum = 0.014 (at node 3)
Injected packet length average = 1
Accepted packet length average = 1
Total in-flight flits = 3 (3 measured)
latency change    = 0.0176557
throughput change = 0.0566038
Class 0:
Packet latency average = 21.9091
	minimum = 7
	maximum = 62
Network latency average = 21.9091
	minimum = 7
	maximum = 62
Slowest packet = 33241
Flit latency average = 22.3289
	minimum = 7
	maximum = 64
Slowest flit = 33139
Fragmentation average = 0
	minimum = 0
	maximum = 0
Injected packet rate average = 0.00925
	minimum = 0.00533333 (at node 0)
	maximum = 0.0126667 (at node 11)
Accepted packet rate average = 0.009375
	minimum = 0.00533333 (at node 0)
	maximum = 0.0126667 (at node 14)
Injected flit rate average = 0.00925
	minimum = 0.00533333 (at node 0)
	maximum = 0.0126667 (at node 11)
Accepted flit rate average= 0.009375
	minimum = 0.00533333 (at node 0)
	maximum = 0.0126667 (at node 14)
Injected packet length average = 1
Accepted packet length average = 1
Total in-flight flits = 2 (2 measured)
latency change    = 0.0195614
throughput change = 0.06
Class 0:
Packet latency average = 21.8953
	minimum = 7
	maximum = 62
Network latency average = 21.8953
	minimum = 7
	maximum = 62
Slowest packet = 33241
Flit latency average = 22.2093
	minimum = 7
	maximum = 64
Slowest flit = 33139
Fragmentation average = 0
	minimum = 0
	maximum = 0
Injected packet rate average = 0.00940625
	minimum = 0.0065 (at node 0)
	maximum = 0.012 (at node 15)
Accepted packet rate average = 0.00940625
	minimum = 0.0065 (at node 0)
	maximum = 0.012 (at node 15)
Injected flit rate average = 0.00940625
	minimum = 0.0065 (at node 0)
	maximum = 0.012 (at node 15)
Accepted flit rate average= 0.00940625
	minimum = 0.0065 (at node 0)
	maximum = 0.012 (at node 15)
Injected packet length average = 1
Accepted packet length average = 1
Total in-flight flits = 5 (5 measured)
latency change    = 0.000631216
throughput change = 0.00332226
Class 0:
Packet latency average = 21.7888
	minimum = 7
	maximum = 62
Network latency average = 21.7888
	minimum = 7
	maximum = 62
Slowest packet = 33241
Flit latency average = 22.0396
	minimum = 7
	maximum = 64
Slowest flit = 33139
Fragmentation average = 0
	minimum = 0
	maximum = 0
Injected packet rate average = 0.0095
	minimum = 0.0068 (at node 0)
	maximum = 0.0132 (at node 15)
Accepted packet rate average = 0.009475
	minimum = 0.0064 (at node 4)
	maximum = 0.0128 (at node 13)
Injected flit rate average = 0.0095
	minimum = 0.0068 (at node 0)
	maximum = 0.0132 (at node 15)
Accepted flit rate average= 0.009475
	minimum = 0.0064 (at node 4)
	maximum = 0.0128 (at node 13)
Injected packet length average = 1
Accepted packet length average = 1
Total in-flight flits = 6 (6 measured)
latency change    = 0.00488785
throughput change = 0.00725594
Class 0:
Packet latency average = 21.6039
	minimum = 7
	maximum = 62
Network latency average = 21.6039
	minimum = 7
	maximum = 62
Slowest packet = 33241
Flit latency average = 21.8072
	minimum = 7
	maximum = 64
Slowest flit = 33139
Fragmentation average = 0
	minimum = 0
	maximum = 0
Injected packet rate average = 0.00979167
	minimum = 0.007 (at node 10)
	maximum = 0.014 (at node 7)
Accepted packet rate average = 0.00983333
	minimum = 0.007 (at node 10)
	maximum = 0.014 (at node 13)
Injected flit rate average = 0.00979167
	minimum = 0.007 (at node 10)
	maximum = 0.014 (at node 7)
Accepted flit rate average= 0.00983333
	minimum = 0.007 (at node 10)
	maximum = 0.014 (at node 13)
Injected packet length average = 1
Accepted packet length average = 1
Total in-flight flits = 3 (3 measured)
latency change    = 0.00855938
throughput change = 0.0364407
Draining all recorded packets ...
Draining remaining packets ...
Time taken is 4565 cycles
====== Overall Traffic Statistics ======
====== Traffic class 0 ======
Packet latency average = 21.1862 (50 samples)
	minimum = 7 (50 samples)
	maximum = 59.98 (50 samples)
Network latency average = 21.1862 (50 samples)
	minimum = 7 (50 samples)
	maximum = 59.98 (50 samples)
Flit latency average = 21.2512 (50 samples)
	minimum = 7 (50 samples)
	maximum = 60.16 (50 samples)
Fragmentation average = 0 (50 samples)
	minimum = 0 (50 samples)
	maximum = 0 (50 samples)
Injected packet rate average = 0.00995377 (50 samples)
	minimum = 0.0067139 (50 samples)
	maximum = 0.0136126 (50 samples)
Accepted packet rate average = 0.00994018 (50 samples)
	minimum = 0.00668133 (50 samples)
	maximum = 0.013597 (50 samples)
Injected flit rate average = 0.00995377 (50 samples)
	minimum = 0.0067139 (50 samples)
	maximum = 0.0136126 (50 samples)
Accepted flit rate average = 0.00994018 (50 samples)
	minimum = 0.00668133 (50 samples)
	maximum = 0.013597 (50 samples)
Injected packet size average = 1 (50 samples)
Accepted packet size average = 1 (50 samples)
Hops average = 3.75821 (50 samples)
Total run time 1.1602
