BEGIN Configuration File: /tmp/tmp_o4n_t4i.cfg
topology = mesh;
k = 4;
n = 2;
routing_function = planar_adapt;
num_vcs = 4;
vc_buf_size = 4;
wait_for_tail_credit = 1;
vc_allocator = islip;
sw_allocator = islip;
alloc_iters = 1;
credit_delay = 2;
routing_delay = 1;
vc_alloc_delay = 1;
sw_alloc_delay = 1;
input_speedup = 2;
output_speedup = 1;
internal_speedup = 1.0;
traffic = uniform;
packet_size = 1;
sim_type = latency;
injection_rate = 0.05;
warmup_periods = 3;
sample_period = 500;
sim_count = 50;
seed = 0;
link_failures = 1;
fail_seed = 303;

END Configuration File: /tmp/tmp_o4n_t4i.cfg
failure at node 9, channel 2 (1/1)
Class 0:
Packet latency average = 20.2753
	minimum = 7
	maximum = 52
Network latency average = 20.2753
	minimum = 7
	maximum = 52
Slowest packet = 340
Flit latency average = 20.2753
	minimum = 7
	maximum = 52
Slowest flit = 340
Fragmentation average = 0
	minimum = 0
	maximum = 0
Injected packet rate average = 0.049625
	minimum = 0.032 (at node 8)
	maximum = 0.064 (at node 13)
Accepted packet rate average = 0.048125
	minimum = 0.024 (at node 11)
	maximum = 0.064 (at node 2)
Injected flit rate average = 0.049625
	minimum = 0.032 (at node 8)
	maximum = 0.064 (at node 13)
Accepted flit rate average= 0.048125
	minimum = 0.024 (at node 11)
	maximum = 0.064 (at node 2)
Injected packet length average = 1
Accepted packet length average = 1
Total in-flight flits = 12 (0 measured)
latency change    = 1
throughput change = 1
Class 0:
Packet latency average = 20.5519
	minimum = 7
	maximum = 75
Network latency average = 20.5519
	minimum = 7
	maximum = 75
Slowest packet = 522
Flit latency average = 20.5519
	minimum = 7
	maximum = 75
Slowest flit = 522
Fragmentation average = 0
	minimum = 0
	maximum = 0
Injected packet rate average = 0.048875
	minimum = 0.041 (at node 5)
	maximum = 0.054 (at node 1)
Accepted packet rate average = 0.048125
	minimum = 0.038 (at node 11)
	maximum = 0.054 (at node 0)
Injected flit rate average = 0.048875
	minimum = 0.041 (at node 5)
	maximum = 0.054 (at node 1)
Accepted flit rate average= 0.048125
	minimum = 0.038 (at node 11)
	maximum = 0.054 (at node 0)
Injected packet length average = 1
Accepted packet length average = 1
Total in-flight flits = 12 (0 measured)
latency change    = 0.0134597
throughput change = 0
Class 0:
Packet latency average = 21.2077
	minimum = 7
	maximum = 56
Network latency average = 21.2077
	minimum = 7
	maximum = 56
Slowest packet = 842
Flit latency average = 21.2077
	minimum = 7
	maximum = 56
Slowest flit = 842
Fragmentation average = 0
	minimum = 0
	maximum = 0
Injected packet rate average = 0.05025
	minimum = 0.032 (at node 11)
	maximum = 0.064 (at node 12)
Accepted packet rate average = 0.04875
	minimum = 0.032 (at node 0)
	maximum = 0.064 (at node 7)
Injected flit rate average = 0.05025
	minimum = 0.032 (at node 11)
	maximum = 0.064 (at node 12)
Accepted flit rate average= 0.04875
	minimum = 0.032 (at node 0)
	maximum = 0.064 (at node 7)
Injected packet length average = 1
Accepted packet length average = 1
Total in-flight flits = 24 (0 measured)
latency change    = 0.0309201
throughput change = 0.0128205
Warmed up ...Time used is 1500 cycles
Class 0:
Packet latency average = 20.2145
	minimum = 7
	maximum = 48
Network latency average = 20.2145
	minimum = 7
	maximum = 48
Slowest packet = 1304
Flit latency average = 20.4484
	minimum = 7
	maximum = 50
Slowest flit = 1173
Fragmentation average = 0
	minimum = 0
	maximum = 0
Injected packet rate average = 0.0485
	minimum = 0.036 (at node 9)
	maximum = 0.066 (at node 13)
Accepted packet rate average = 0.049625
	minimum = 0.03 (at node 2)
	maximum = 0.07 (at node 11)
Injected flit rate average = 0.0485
	minimum = 0.036 (at node 9)
	maximum = 0.066 (at node 13)
Accepted flit rate average= 0.049625
	minimum = 0.03 (at node 2)
	maximum = 0.07 (at node 11)
Injected packet length average = 1
Accepted packet length average = 1
Total in-flight flits = 15 (15 measured)
latency change    = 0.0491339
throughput change = 0.0176322
Class 0:
Packet latency average = 20.3706
	minimum = 7
	maximum = 54
Network latency average = 20.3706
	minimum = 7
	maximum = 54
Slowest packet = 1794
Flit latency average = 20.4793
	minimum = 7
	maximum = 54
Slowest flit = 1794
Fragmentation average = 0
	minimum = 0
	maximum = 0
Injected packet rate average = 0.0505625
	minimum = 0.04 (at node 9)
	maximum = 0.064 (at node 13)
Accepted packet rate average = 0.05125
	minimum = 0.036 (at node 2)
	maximum = 0.064 (at node 8)
Injected flit rate average = 0.0505625
	minimum = 0.04 (at node 9)
	maximum = 0.064 (at node 13)
Accepted flit rate average= 0.05125
	minimum = 0.036 (at node 2)
	maximum = 0.064 (at node 8)
Injected packet length average = 1
Accepted packet length average = 1
Total in-flight flits = 13 (13 measured)
latency change    = 0.00766427
throughput change = 0.0317073
Class 0:
Packet latency average = 20.5653
	minimum = 7
	maximum = 54
Network latency average = 20.5653
	minimum = 7
	maximum = 54
Slowest packet = 1794
Flit latency average = 20.6346
	minimum = 7
	maximum = 54
Slowest flit = 1794
Fragmentation average = 0
	minimum = 0
	maximum = 0
Injected packet rate average = 0.0507083
	minimum = 0.044 (at node 9)
	maximum = 0.0566667 (at node 11)
Accepted packet rate average = 0.05075
	minimum = 0.04 (at node 4)
	maximum = 0.0593333 (at node 11)
Injected flit rate average = 0.0507083
	minimum = 0.044 (at node 9)
	maximum = 0.0566667 (at node 11)
Accepted flit rate average= 0.05075
	minimum = 0.04 (at node 4)
	maximum = 0.0593333 (at node 11)
Injected packet length average = 1
Accepted packet length average = 1
Total in-flight flits = 23 (23 measured)
latency change    = 0.00946854
throughput change = 0.00985222
Draining all recorded packets ...
Draining remaining packets ...
Time taken is 3053 cycles
Class 0:
Packet latency average = 21.4293
	minimum = 7
	maximum = 80
Network latency average = 21.4293
	minimum = 7
	maximum = 80
Slowest packet = 2637
Flit latency average = 21.4293
	minimum = 7
	maximum = 80
Slowest flit = 2637
Fragmentation average = 0
	minimum = 0
	maximum = 0
Injected packet rate average = 0.050125
	minimum = 0.042 (at node 0)
	maximum = 0.068 (at node 15)
Accepted packet rate average = 0.046875
	minimum = 0.024 (at node 15)
	maximum = 0.062 (at node 13)
Injected flit rate average = 0.050125
	minimum = 0.042 (at node 0)
	maximum = 0.068 (at node 15)
Accepted flit rate average= 0.046875
	minimum = 0.024 (at node 15)
	maximum = 0.062 (at node 13)
Injected packet length average = 1
Accepted packet length average = 1
Total in-flight flits = 26 (0 measured)
latency change    = 1
throughput change = 1
Class 0:
Packet latency average = 20.882
	minimum = 7
	maximum = 80
Network latency average = 20.882
	minimum = 7
	maximum = 80
Slowest packet = 2637
Flit latency average = 20.882
	minimum = 7
	maximum = 80
Slowest flit = 2637
Fragmentation average = 0
	minimum = 0
	maximum = 0
Injected packet rate average = 0.048
	minimum = 0.035 (at node 0)
	maximum = 0.059 (at node 15)
Accepted packet rate average = 0.046625
	minimum = 0.034 (at node 15)
	maximum = 0.059 (at node 2)
Injected flit rate average = 0.048
	minimum = 0.035 (at node 0)
	maximum = 0.059 (at node 15)
Accepted flit rate average= 0.046625
	minimum = 0.034 (at node 15)
	maximum = 0.059 (at node 2)
Injected packet length average = 1
Accepted packet length average = 1
Total in-flight flits = 22 (0 measured)
latency change    = 0.0262089
throughput change = 0.00536193
Class 0:
Packet latency average = 20.7593
	minimum = 7
	maximum = 61
Network latency average = 20.7593
	minimum = 7
	maximum = 61
Slowest packet = 3161
Flit latency average = 20.7593
	minimum = 7
	maximum = 61
Slowest flit = 3161
Fragmentation average = 0
	minimum = 0
	maximum = 0
Injected packet rate average = 0.0465
	minimum = 0.036 (at node 6)
	maximum = 0.06 (at node 10)
Accepted packet rate average = 0.04725
	minimum = 0.034 (at node 7)
	maximum = 0.062 (at node 6)
Injected flit rate average = 0.0465
	minimum = 0.036 (at node 6)
	maximum = 0.06 (at node 10)
Accepted flit rate average= 0.04725
	minimum = 0.034 (at node 7)
	maximum = 0.062 (at node 6)
Injected packet length average = 1
Accepted packet length average = 1
Total in-flight flits = 16 (0 measured)
latency change    = 0.00591439
throughput change = 0.0132275
Warmed up ...Time used is 1500 cycles
Class 0:
Packet latency average = 20.6233
	minimum = 7
	maximum = 48
Network latency average = 20.6233
	minimum = 7
	maximum = 48
Slowest packet = 3860
Flit latency average = 20.6987
	minimum = 7
	maximum = 48
Slowest flit = 3860
Fragmentation average = 0
	minimum = 0
	maximum = 0
Injected packet rate average = 0.048625
	minimum = 0.034 (at node 0)
	maximum = 0.064 (at node 9)
Accepted packet rate average = 0.048125
	minimum = 0.038 (at node 9)
	maximum = 0.06 (at node 3)
Injected flit rate average = 0.048625
	minimum = 0.034 (at node 0)
	maximum = 0.064 (at node 9)
Accepted flit rate average= 0.048125
	minimum = 0.038 (at node 9)
	maximum = 0.06 (at node 3)
Injected packet length average = 1
Accepted packet length average = 1
Total in-flight flits = 20 (20 measured)
latency change    = 0.0065922
throughput change = 0.0181818
Class 0:
Packet latency average = 20.7995
	minimum = 7
	maximum = 56
Network latency average = 20.7995
	minimum = 7
	maximum = 56
Slowest packet = 4081
Flit latency average = 20.8333
	minimum = 7
	maximum = 56
Slowest flit = 4081
Fragmentation average = 0
	minimum = 0
	maximum = 0
Injected packet rate average = 0.048875
	minimum = 0.04 (at node 8)
	maximum = 0.058 (at node 15)
Accepted packet rate average = 0.048375
	minimum = 0.04 (at node 4)
	maximum = 0.059 (at node 7)
Injected flit rate average = 0.048875
	minimum = 0.04 (at node 8)
	maximum = 0.058 (at node 15)
Accepted flit rate average= 0.048375
	minimum = 0.04 (at node 4)
	maximum = 0.059 (at node 7)
Injected packet length average = 1
Accepted packet length average = 1
Total in-flight flits = 24 (24 measured)
latency change    = 0.00846974
throughput change = 0.00516796
Class 0:
Packet latency average = 20.7814
	minimum = 7
	maximum = 56
Network latency average = 20.7814
	minimum = 7
	maximum = 56
Slowest packet = 4081
Flit latency average = 20.8041
	minimum = 7
	maximum = 56
Slowest flit = 4081
Fragmentation average = 0
	minimum = 0
	maximum = 0
Injected packet rate average = 0.0488333
	minimum = 0.0393333 (at node 6)
	maximum = 0.0593333 (at node 15)
Accepted packet rate average = 0.0487083
	minimum = 0.0426667 (at node 0)
	maximum = 0.058 (at node 7)
Injected flit rate average = 0.0488333
	minimum = 0.0393333 (at node 6)
	maximum = 0.0593333 (at node 15)
Accepted flit rate average= 0.0487083
	minimum = 0.0426667 (at node 0)
	maximum = 0.058 (at node 7)
Injected packet length average = 1
Accepted packet length average = 1
Total in-flight flits = 19 (19 measured)
latency change    = 0.000867725
throughput change = 0.00684346
Draining all recorded packets ...
Draining remaining packets ...
Time taken is 3069 cycles
Class 0:
Packet latency average = 20.7911
	minimum = 7
	maximum = 54
Network latency average = 20.7911
	minimum = 7
	maximum = 54
Slowest packet = 4965
Flit latency average = 20.7911
	minimum = 7
	maximum = 54
Slowest flit = 4965
Fragmentation average = 0
	minimum = 0
	maximum = 0
Injected packet rate average = 0.055
	minimum = 0.04 (at node 8)
	maximum = 0.072 (at node 3)
Accepted packet rate average = 0.05325
	minimum = 0.036 (at node 6)
	maximum = 0.07 (at node 14)
Injected flit rate average = 0.055
	minimum = 0.04 (at node 8)
	maximum = 0.072 (at node 3)
Accepted flit rate average= 0.05325
	minimum = 0.036 (at node 6)
	maximum = 0.07 (at node 14)
Injected packet length average = 1
Accepted packet length average = 1
Total in-flight flits = 14 (0 measured)
latency change    = 1
throughput change = 1
Class 0:
Packet latency average = 20.6092
	minimum = 7
	maximum = 70
Network latency average = 20.6092
	minimum = 7
	maximum = 70
Slowest packet = 5367
Flit latency average = 20.6092
	minimum = 7
	maximum = 70
Slowest flit = 5367
Fragmentation average = 0
	minimum = 0
	maximum = 0
Injected packet rate average = 0.051
	minimum = 0.038 (at node 4)
	maximum = 0.064 (at node 13)
Accepted packet rate average = 0.0500625
	minimum = 0.039 (at node 2)
	maximum = 0.061 (at node 7)
Injected flit rate average = 0.051
	minimum = 0.038 (at node 4)
	maximum = 0.064 (at node 13)
Accepted flit rate average= 0.0500625
	minimum = 0.039 (at node 2)
	maximum = 0.061 (at node 7)
Injected packet length average = 1
Accepted packet length average = 1
Total in-flight flits = 15 (0 measured)
latency change    = 0.00882329
throughput change = 0.0636704
Class 0:
Packet latency average = 19.6884
	minimum = 7
	maximum = 41
Network latency average = 19.6884
	minimum = 7
	maximum = 41
Slowest packet = 5620
Flit latency average = 19.6884
	minimum = 7
	maximum = 41
Slowest flit = 5620
Fragmentation average = 0
	minimum = 0
	maximum = 0
Injected packet rate average = 0.0525
	minimum = 0.036 (at node 12)
	maximum = 0.068 (at node 6)
Accepted packet rate average = 0.05175
	minimum = 0.026 (at node 13)
	maximum = 0.066 (at node 9)
Injected flit rate average = 0.0525
	minimum = 0.036 (at node 12)
	maximum = 0.068 (at node 6)
Accepted flit rate average= 0.05175
	minimum = 0.026 (at node 13)
	maximum = 0.066 (at node 9)
Injected packet length average = 1
Accepted packet length average = 1
Total in-flight flits = 21 (0 measured)
latency change    = 0.0467703
throughput change = 0.0326087
Warmed up ...Time used is 1500 cycles
Class 0:
Packet latency average = 20.916
	minimum = 7
	maximum = 47
Network latency average = 20.916
	minimum = 7
	maximum = 47
Slowest packet = 6350
Flit latency average = 21.0872
	minimum = 7
	maximum = 47
Slowest flit = 6350
Fragmentation average = 0
	minimum = 0
	maximum = 0
Injected packet rate average = 0.04825
	minimum = 0.036 (at node 10)
	maximum = 0.06 (at node 3)
Accepted packet rate average = 0.04875
	minimum = 0.038 (at node 3)
	maximum = 0.064 (at node 8)
Injected flit rate average = 0.04825
	minimum = 0.036 (at node 10)
	maximum = 0.06 (at node 3)
Accepted flit rate average= 0.04875
	minimum = 0.038 (at node 3)
	maximum = 0.064 (at node 8)
Injected packet length average = 1
Accepted packet length average = 1
Total in-flight flits = 17 (17 measured)
latency change    = 0.0586911
throughput change = 0.0615385
Class 0:
Packet latency average = 21.0543
	minimum = 7
	maximum = 48
Network latency average = 21.0543
	minimum = 7
	maximum = 48
Slowest packet = 6503
Flit latency average = 21.1348
	minimum = 7
	maximum = 48
Slowest flit = 6503
Fragmentation average = 0
	minimum = 0
	maximum = 0
Injected packet rate average = 0.049625
	minimum = 0.041 (at node 7)
	maximum = 0.058 (at node 4)
Accepted packet rate average = 0.049625
	minimum = 0.042 (at node 3)
	maximum = 0.062 (at node 8)
Injected flit rate average = 0.049625
	minimum = 0.041 (at node 7)
	maximum = 0.058 (at node 4)
Accepted flit rate average= 0.049625
	minimum = 0.042 (at node 3)
	maximum = 0.062 (at node 8)
Injected packet length average = 1
Accepted packet length average = 1
Total in-flight flits = 21 (21 measured)
latency change    = 0.00657084
throughput change = 0.0176322
Class 0:
Packet latency average = 20.939
	minimum = 7
	maximum = 69
Network latency average = 20.939
	minimum = 7
	maximum = 69
Slowest packet = 6961
Flit latency average = 20.9934
	minimum = 7
	maximum = 69
Slowest flit = 6961
Fragmentation average = 0
	minimum = 0
	maximum = 0
Injected packet rate average = 0.0504583
	minimum = 0.0413333 (at node 13)
	maximum = 0.0613333 (at node 6)
Accepted packet rate average = 0.0507083
	minimum = 0.0453333 (at node 14)
	maximum = 0.0626667 (at node 8)
Injected flit rate average = 0.0504583
	minimum = 0.0413333 (at node 13)
	maximum = 0.0613333 (at node 6)
Accepted flit rate average= 0.0507083
	minimum = 0.0453333 (at node 14)
	maximum = 0.0626667 (at node 8)
Injected packet length average = 1
Accepted packet length average = 1
Total in-flight flits = 15 (15 measured)
latency change    = 0.00550985
throughput change = 0.021364
Class 0:
Packet latency average = 20.9036
	minimum = 7
	maximum = 69
Network latency average = 20.9036
	minimum = 7
	maximum = 69
Slowest packet = 6961
Flit latency average = 20.9456
	minimum = 7
	maximum = 69
Slowest flit = 6961
Fragmentation average = 0
	minimum = 0
	maximum = 0
Injected packet rate average = 0.0495
	minimum = 0.041 (at node 13)
	maximum = 0.057 (at node 6)
Accepted packet rate average = 0.0499375
	minimum = 0.0445 (at node 3)
	maximum = 0.0615 (at node 8)
Injected flit rate average = 0.0495
	minimum = 0.041 (at node 13)
	maximum = 0.057 (at node 6)
Accepted flit rate average= 0.0499375
	minimum = 0.0445 (at node 3)
	maximum = 0.0615 (at node 8)
Injected packet length average = 1
Accepted packet length average = 1
Total in-flight flits = 7 (7 measured)
latency change    = 0.00169104
throughput change = 0.015436
Draining all recorded packets ...
Draining remaining packets ...
Time taken is 3570 cycles
Class 0:
Packet latency average = 20.3859
	minimum = 7
	maximum = 47
Network latency average = 20.3859
	minimum = 7
	maximum = 47
Slowest packet = 7754
Flit latency average = 20.3859
	minimum = 7
	maximum = 47
Slowest flit = 7754
Fragmentation average = 0
	minimum = 0
	maximum = 0
Injected packet rate average = 0.04725
	minimum = 0.034 (at node 0)
	maximum = 0.056 (at node 12)
Accepted packet rate average = 0.044375
	minimum = 0.026 (at node 6)
	maximum = 0.064 (at node 12)
Injected flit rate average = 0.04725
	minimum = 0.034 (at node 0)
	maximum = 0.056 (at node 12)
Accepted flit rate average= 0.044375
	minimum = 0.026 (at node 6)
	maximum = 0.064 (at node 12)
Injected packet length average = 1
Accepted packet length average = 1
Total in-flight flits = 23 (0 measured)
latency change    = 1
throughput change = 1
Class 0:
Packet latency average = 20.2726
	minimum = 7
	maximum = 47
Network latency average = 20.2726
	minimum = 7
	maximum = 47
Slowest packet = 7754
Flit latency average = 20.2726
	minimum = 7
	maximum = 47
Slowest flit = 7754
Fragmentation average = 0
	minimum = 0
	maximum = 0
Injected packet rate average = 0.048625
	minimum = 0.04 (at node 1)
	maximum = 0.058 (at node 11)
Accepted packet rate average = 0.0476875
	minimum = 0.032 (at node 4)
	maximum = 0.061 (at node 3)
Injected flit rate average = 0.048625
	minimum = 0.04 (at node 1)
	maximum = 0.058 (at node 11)
Accepted flit rate average= 0.0476875
	minimum = 0.032 (at node 4)
	maximum = 0.061 (at node 3)
Injected packet length average = 1
Accepted packet length average = 1
Total in-flight flits = 15 (0 measured)
latency change    = 0.00558919
throughput change = 0.0694626
Class 0:
Packet latency average = 20.2913
	minimum = 7
	maximum = 56
Network latency average = 20.2887
	minimum = 7
	maximum = 56
Slowest packet = 8625
Flit latency average = 20.2887
	minimum = 7
	maximum = 56
Slowest flit = 8625
Fragmentation average = 0
	minimum = 0
	maximum = 0
Injected packet rate average = 0.04775
	minimum = 0.038 (at node 3)
	maximum = 0.064 (at node 9)
Accepted packet rate average = 0.047625
	minimum = 0.032 (at node 10)
	maximum = 0.07 (at node 2)
Injected flit rate average = 0.04775
	minimum = 0.038 (at node 3)
	maximum = 0.064 (at node 9)
Accepted flit rate average= 0.047625
	minimum = 0.032 (at node 10)
	maximum = 0.07 (at node 2)
Injected packet length average = 1
Accepted packet length average = 1
Total in-flight flits = 16 (0 measured)
latency change    = 0.000923076
throughput change = 0.00131234
Warmed up ...Time used is 1500 cycles
Class 0:
Packet latency average = 20.5971
	minimum = 7
	maximum = 58
Network latency average = 20.5971
	minimum = 7
	maximum = 58
Slowest packet = 9035
Flit latency average = 20.6986
	minimum = 7
	maximum = 58
Slowest flit = 9035
Fragmentation average = 0
	minimum = 0
	maximum = 0
Injected packet rate average = 0.054125
	minimum = 0.038 (at node 3)
	maximum = 0.082 (at node 0)
Accepted packet rate average = 0.0535
	minimum = 0.038 (at node 12)
	maximum = 0.08 (at node 0)
Injected flit rate average = 0.054125
	minimum = 0.038 (at node 3)
	maximum = 0.082 (at node 0)
Accepted flit rate average= 0.0535
	minimum = 0.038 (at node 12)
	maximum = 0.08 (at node 0)
Injected packet length average = 1
Accepted packet length average = 1
Total in-flight flits = 21 (21 measured)
latency change    = 0.0148443
throughput change = 0.109813
Class 0:
Packet latency average = 21.0968
	minimum = 7
	maximum = 58
Network latency average = 21.0968
	minimum = 7
	maximum = 58
Slowest packet = 9035
Flit latency average = 21.1394
	minimum = 7
	maximum = 58
Slowest flit = 9035
Fragmentation average = 0
	minimum = 0
	maximum = 0
Injected packet rate average = 0.052
	minimum = 0.038 (at node 14)
	maximum = 0.073 (at node 0)
Accepted packet rate average = 0.052
	minimum = 0.042 (at node 9)
	maximum = 0.063 (at node 0)
Injected flit rate average = 0.052
	minimum = 0.038 (at node 14)
	maximum = 0.073 (at node 0)
Accepted flit rate average= 0.052
	minimum = 0.042 (at node 9)
	maximum = 0.063 (at node 0)
Injected packet length average = 1
Accepted packet length average = 1
Total in-flight flits = 16 (16 measured)
latency change    = 0.0236873
throughput change = 0.0288462
Class 0:
Packet latency average = 20.8719
	minimum = 7
	maximum = 58
Network latency average = 20.8719
	minimum = 7
	maximum = 58
Slowest packet = 9035
Flit latency average = 20.9029
	minimum = 7
	maximum = 58
Slowest flit = 9035
Fragmentation average = 0
	minimum = 0
	maximum = 0
Injected packet rate average = 0.0522917
	minimum = 0.0393333 (at node 14)
	maximum = 0.0666667 (at node 0)
Accepted packet rate average = 0.052375
	minimum = 0.0453333 (at node 9)
	maximum = 0.0626667 (at node 10)
Injected flit rate average = 0.0522917
	minimum = 0.0393333 (at node 14)
	maximum = 0.0666667 (at node 0)
Accepted flit rate average= 0.052375
	minimum = 0.0453333 (at node 9)
	maximum = 0.0626667 (at node 10)
Injected packet length average = 1
Accepted packet length average = 1
Total in-flight flits = 14 (14 measured)
latency change    = 0.010777
throughput change = 0.0071599
Class 0:
Packet latency average = 20.6687
	minimum = 7
	maximum = 58
Network latency average = 20.6687
	minimum = 7
	maximum = 58
Slowest packet = 9035
Flit latency average = 20.694
	minimum = 7
	maximum = 58
Slowest flit = 9035
Fragmentation average = 0
	minimum = 0
	maximum = 0
Injected packet rate average = 0.0524063
	minimum = 0.0415 (at node 14)
	maximum = 0.0635 (at node 0)
Accepted packet rate average = 0.0522813
	minimum = 0.046 (at node 9)
	maximum = 0.06 (at node 10)
Injected flit rate average = 0.0524063
	minimum = 0.0415 (at node 14)
	maximum = 0.0635 (at node 0)
Accepted flit rate average= 0.0522813
	minimum = 0.046 (at node 9)
	maximum = 0.06 (at node 10)
Injected packet length average = 1
Accepted packet length average = 1
Total in-flight flits = 20 (20 measured)
latency change    = 0.00983126
throughput change = 0.00179319
Draining all recorded packets ...
Draining remaining packets ...
Time taken is 3557 cycles
Class 0:
Packet latency average = 20.7683
	minimum = 7
	maximum = 44
Network latency average = 20.7683
	minimum = 7
	maximum = 44
Slowest packet = 10544
Flit latency average = 20.7683
	minimum = 7
	maximum = 44
Slowest flit = 10544
Fragmentation average = 0
	minimum = 0
	maximum = 0
Injected packet rate average = 0.05475
	minimum = 0.032 (at node 4)
	maximum = 0.08 (at node 10)
Accepted packet rate average = 0.052875
	minimum = 0.04 (at node 0)
	maximum = 0.066 (at node 7)
Injected flit rate average = 0.05475
	minimum = 0.032 (at node 4)
	maximum = 0.08 (at node 10)
Accepted flit rate average= 0.052875
	minimum = 0.04 (at node 0)
	maximum = 0.066 (at node 7)
Injected packet length average = 1
Accepted packet length average = 1
Total in-flight flits = 15 (0 measured)
latency change    = 1
throughput change = 1
Class 0:
Packet latency average = 20.6699
	minimum = 7
	maximum = 73
Network latency average = 20.6699
	minimum = 7
	maximum = 73
Slowest packet = 10953
Flit latency average = 20.6699
	minimum = 7
	maximum = 73
Slowest flit = 10953
Fragmentation average = 0
	minimum = 0
	maximum = 0
Injected packet rate average = 0.053125
	minimum = 0.041 (at node 4)
	maximum = 0.07 (at node 11)
Accepted packet rate average = 0.051875
	minimum = 0.038 (at node 0)
	maximum = 0.064 (at node 5)
Injected flit rate average = 0.053125
	minimum = 0.041 (at node 4)
	maximum = 0.07 (at node 11)
Accepted flit rate average= 0.051875
	minimum = 0.038 (at node 0)
	maximum = 0.064 (at node 5)
Injected packet length average = 1
Accepted packet length average = 1
Total in-flight flits = 20 (0 measured)
latency change    = 0.00476258
throughput change = 0.0192771
Class 0:
Packet latency average = 20.3759
	minimum = 7
	maximum = 46
Network latency average = 20.3759
	minimum = 7
	maximum = 46
Slowest packet = 11581
Flit latency average = 20.3759
	minimum = 7
	maximum = 46
Slowest flit = 11581
Fragmentation average = 0
	minimum = 0
	maximum = 0
Injected packet rate average = 0.048625
	minimum = 0.034 (at node 6)
	maximum = 0.066 (at node 10)
Accepted packet rate average = 0.049875
	minimum = 0.024 (at node 4)
	maximum = 0.07 (at node 9)
Injected flit rate average = 0.048625
	minimum = 0.034 (at node 6)
	maximum = 0.066 (at node 10)
Accepted flit rate average= 0.049875
	minimum = 0.024 (at node 4)
	maximum = 0.07 (at node 9)
Injected packet length average = 1
Accepted packet length average = 1
Total in-flight flits = 10 (0 measured)
latency change    = 0.0144258
throughput change = 0.0401003
Warmed up ...Time used is 1500 cycles
Class 0:
Packet latency average = 20.9661
	minimum = 7
	maximum = 70
Network latency average = 20.9661
	minimum = 7
	maximum = 70
Slowest packet = 11833
Flit latency average = 21.0865
	minimum = 7
	maximum = 70
Slowest flit = 11833
Fragmentation average = 0
	minimum = 0
	maximum = 0
Injected packet rate average = 0.049625
	minimum = 0.034 (at node 9)
	maximum = 0.064 (at node 2)
Accepted packet rate average = 0.049125
	minimum = 0.032 (at node 8)
	maximum = 0.068 (at node 0)
Injected flit rate average = 0.049625
	minimum = 0.034 (at node 9)
	maximum = 0.064 (at node 2)
Accepted flit rate average= 0.049125
	minimum = 0.032 (at node 8)
	maximum = 0.068 (at node 0)
Injected packet length average = 1
Accepted packet length average = 1
Total in-flight flits = 14 (14 measured)
latency change    = 0.0281463
throughput change = 0.0152672
Class 0:
Packet latency average = 20.784
	minimum = 7
	maximum = 70
Network latency average = 20.784
	minimum = 7
	maximum = 70
Slowest packet = 11833
Flit latency average = 20.8467
	minimum = 7
	maximum = 70
Slowest flit = 11833
Fragmentation average = 0
	minimum = 0
	maximum = 0
Injected packet rate average = 0.04925
	minimum = 0.038 (at node 12)
	maximum = 0.061 (at node 15)
Accepted packet rate average = 0.0489375
	minimum = 0.037 (at node 8)
	maximum = 0.062 (at node 0)
Injected flit rate average = 0.04925
	minimum = 0.038 (at node 12)
	maximum = 0.061 (at node 15)
Accepted flit rate average= 0.0489375
	minimum = 0.037 (at node 8)
	maximum = 0.062 (at node 0)
Injected packet length average = 1
Accepted packet length average = 1
Total in-flight flits = 15 (15 measured)
latency change    = 0.00876151
throughput change = 0.00383142
Class 0:
Packet latency average = 20.6178
	minimum = 7
	maximum = 70
Network latency average = 20.6178
	minimum = 7
	maximum = 70
Slowest packet = 11833
Flit latency average = 20.6605
	minimum = 7
	maximum = 70
Slowest flit = 11833
Fragmentation average = 0
	minimum = 0
	maximum = 0
Injected packet rate average = 0.049625
	minimum = 0.038 (at node 0)
	maximum = 0.0593333 (at node 15)
Accepted packet rate average = 0.0495833
	minimum = 0.0393333 (at node 12)
	maximum = 0.062 (at node 0)
Injected flit rate average = 0.049625
	minimum = 0.038 (at node 0)
	maximum = 0.0593333 (at node 15)
Accepted flit rate average= 0.0495833
	minimum = 0.0393333 (at node 12)
	maximum = 0.062 (at node 0)
Injected packet length average = 1
Accepted packet length average = 1
Total in-flight flits = 11 (11 measured)
latency change    = 0.00805915
throughput change = 0.0130252
Draining all recorded packets ...
Draining remaining packets ...
Time taken is 3047 cycles
Class 0:
Packet latency average = 19.6209
	minimum = 7
	maximum = 59
Network latency average = 19.6209
	minimum = 7
	maximum = 59
Slowest packet = 13269
Flit latency average = 19.6209
	minimum = 7
	maximum = 59
Slowest flit = 13269
Fragmentation average = 0
	minimum = 0
	maximum = 0
Injected packet rate average = 0.046625
	minimum = 0.028 (at node 13)
	maximum = 0.062 (at node 5)
Accepted packet rate average = 0.0455
	minimum = 0.032 (at node 11)
	maximum = 0.058 (at node 6)
Injected flit rate average = 0.046625
	minimum = 0.028 (at node 13)
	maximum = 0.062 (at node 5)
Accepted flit rate average= 0.0455
	minimum = 0.032 (at node 11)
	maximum = 0.058 (at node 6)
Injected packet length average = 1
Accepted packet length average = 1
Total in-flight flits = 9 (0 measured)
latency change    = 1
throughput change = 1
Class 0:
Packet latency average = 20.1406
	minimum = 7
	maximum = 59
Network latency average = 20.1406
	minimum = 7
	maximum = 59
Slowest packet = 13269
Flit latency average = 20.1406
	minimum = 7
	maximum = 59
Slowest flit = 13269
Fragmentation average = 0
	minimum = 0
	maximum = 0
Injected packet rate average = 0.0495625
	minimum = 0.041 (at node 7)
	maximum = 0.058 (at node 0)
Accepted packet rate average = 0.0484375
	minimum = 0.035 (at node 2)
	maximum = 0.06 (at node 10)
Injected flit rate average = 0.0495625
	minimum = 0.041 (at node 7)
	maximum = 0.058 (at node 0)
Accepted flit rate average= 0.0484375
	minimum = 0.035 (at node 2)
	maximum = 0.06 (at node 10)
Injected packet length average = 1
Accepted packet length average = 1
Total in-flight flits = 18 (0 measured)
latency change    = 0.0258068
throughput change = 0.0606452
Class 0:
Packet latency average = 20.4426
	minimum = 7
	maximum = 48
Network latency average = 20.4426
	minimum = 7
	maximum = 48
Slowest packet = 13877
Flit latency average = 20.4426
	minimum = 7
	maximum = 48
Slowest flit = 13877
Fragmentation average = 0
	minimum = 0
	maximum = 0
Injected packet rate average = 0.044375
	minimum = 0.032 (at node 15)
	maximum = 0.062 (at node 12)
Accepted packet rate average = 0.044625
	minimum = 0.024 (at node 14)
	maximum = 0.062 (at node 15)
Injected flit rate average = 0.044375
	minimum = 0.032 (at node 15)
	maximum = 0.062 (at node 12)
Accepted flit rate average= 0.044625
	minimum = 0.024 (at node 14)
	maximum = 0.062 (at node 15)
Injected packet length average = 1
Accepted packet length average = 1
Total in-flight flits = 16 (0 measured)
latency change    = 0.0147698
throughput change = 0.0854342
Warmed up ...Time used is 1500 cycles
Class 0:
Packet latency average = 21.4476
	minimum = 7
	maximum = 66
Network latency average = 21.4476
	minimum = 7
	maximum = 66
Slowest packet = 14164
Flit latency average = 21.5553
	minimum = 7
	maximum = 66
Slowest flit = 14164
Fragmentation average = 0
	minimum = 0
	maximum = 0
Injected packet rate average = 0.05
	minimum = 0.03 (at node 10)
	maximum = 0.076 (at node 14)
Accepted packet rate average = 0.04975
	minimum = 0.03 (at node 14)
	maximum = 0.086 (at node 13)
Injected flit rate average = 0.05
	minimum = 0.03 (at node 10)
	maximum = 0.076 (at node 14)
Accepted flit rate average= 0.04975
	minimum = 0.03 (at node 14)
	maximum = 0.086 (at node 13)
Injected packet length average = 1
Accepted packet length average = 1
Total in-flight flits = 18 (18 measured)
latency change    = 0.0468614
throughput change = 0.103015
Class 0:
Packet latency average = 20.9926
	minimum = 7
	maximum = 66
Network latency average = 20.9926
	minimum = 7
	maximum = 66
Slowest packet = 14164
Flit latency average = 21.0535
	minimum = 7
	maximum = 66
Slowest flit = 14164
Fragmentation average = 0
	minimum = 0
	maximum = 0
Injected packet rate average = 0.051625
	minimum = 0.04 (at node 6)
	maximum = 0.062 (at node 7)
Accepted packet rate average = 0.0514375
	minimum = 0.037 (at node 14)
	maximum = 0.072 (at node 13)
Injected flit rate average = 0.051625
	minimum = 0.04 (at node 6)
	maximum = 0.062 (at node 7)
Accepted flit rate average= 0.0514375
	minimum = 0.037 (at node 14)
	maximum = 0.072 (at node 13)
Injected packet length average = 1
Accepted packet length average = 1
Total in-flight flits = 19 (19 measured)
latency change    = 0.0216781
throughput change = 0.0328068
Class 0:
Packet latency average = 21.103
	minimum = 7
	maximum = 66
Network latency average = 21.103
	minimum = 7
	maximum = 66
Slowest packet = 14164
Flit latency average = 21.1421
	minimum = 7
	maximum = 66
Slowest flit = 14164
Fragmentation average = 0
	minimum = 0
	maximum = 0
Injected packet rate average = 0.0515
	minimum = 0.0433333 (at node 5)
	maximum = 0.0606667 (at node 4)
Accepted packet rate average = 0.051625
	minimum = 0.0393333 (at node 6)
	maximum = 0.064 (at node 13)
Injected flit rate average = 0.0515
	minimum = 0.0433333 (at node 5)
	maximum = 0.0606667 (at node 4)
Accepted flit rate average= 0.051625
	minimum = 0.0393333 (at node 6)
	maximum = 0.064 (at node 13)
Injected packet length average = 1
Accepted packet length average = 1
Total in-flight flits = 13 (13 measured)
latency change    = 0.00523433
throughput change = 0.00363196
Class 0:
Packet latency average = 21.0795
	minimum = 7
	maximum = 66
Network latency average = 21.0795
	minimum = 7
	maximum = 66
Slowest packet = 14164
Flit latency average = 21.1092
	minimum = 7
	maximum = 66
Slowest flit = 14164
Fragmentation average = 0
	minimum = 0
	maximum = 0
Injected packet rate average = 0.0515313
	minimum = 0.042 (at node 5)
	maximum = 0.06 (at node 7)
Accepted packet rate average = 0.0512188
	minimum = 0.04 (at node 6)
	maximum = 0.062 (at node 13)
Injected flit rate average = 0.0515313
	minimum = 0.042 (at node 5)
	maximum = 0.06 (at node 7)
Accepted flit rate average= 0.0512188
	minimum = 0.04 (at node 6)
	maximum = 0.062 (at node 13)
Injected packet length average = 1
Accepted packet length average = 1
Total in-flight flits = 26 (26 measured)
latency change    = 0.00111686
throughput change = 0.00793167
Draining all recorded packets ...
Draining remaining packets ...
Time taken is 3562 cycles
Class 0:
Packet latency average = 20.9758
	minimum = 7
	maximum = 46
Network latency average = 20.9758
	minimum = 7
	maximum = 46
Slowest packet = 15947
Flit latency average = 20.9758
	minimum = 7
	maximum = 46
Slowest flit = 15947
Fragmentation average = 0
	minimum = 0
	maximum = 0
Injected packet rate average = 0.049
	minimum = 0.04 (at node 11)
	maximum = 0.058 (at node 1)
Accepted packet rate average = 0.0465
	minimum = 0.032 (at node 10)
	maximum = 0.058 (at node 4)
Injected flit rate average = 0.049
	minimum = 0.04 (at node 11)
	maximum = 0.058 (at node 1)
Accepted flit rate average= 0.0465
	minimum = 0.032 (at node 10)
	maximum = 0.058 (at node 4)
Injected packet length average = 1
Accepted packet length average = 1
Total in-flight flits = 20 (0 measured)
latency change    = 1
throughput change = 1
Class 0:
Packet latency average = 20.9407
	minimum = 7
	maximum = 46
Network latency average = 20.9407
	minimum = 7
	maximum = 46
Slowest packet = 15947
Flit latency average = 20.9407
	minimum = 7
	maximum = 46
Slowest flit = 15947
Fragmentation average = 0
	minimum = 0
	maximum = 0
Injected packet rate average = 0.052
	minimum = 0.041 (at node 15)
	maximum = 0.06 (at node 7)
Accepted packet rate average = 0.0505625
	minimum = 0.036 (at node 9)
	maximum = 0.067 (at node 6)
Injected flit rate average = 0.052
	minimum = 0.041 (at node 15)
	maximum = 0.06 (at node 7)
Accepted flit rate average= 0.0505625
	minimum = 0.036 (at node 9)
	maximum = 0.067 (at node 6)
Injected packet length average = 1
Accepted packet length average = 1
Total in-flight flits = 23 (0 measured)
latency change    = 0.00167802
throughput change = 0.0803461
Class 0:
Packet latency average = 20.9832
	minimum = 7
	maximum = 46
Network latency average = 20.9832
	minimum = 7
	maximum = 46
Slowest packet = 16612
Flit latency average = 20.9832
	minimum = 7
	maximum = 46
Slowest flit = 16612
Fragmentation average = 0
	minimum = 0
	maximum = 0
Injected packet rate average = 0.051375
	minimum = 0.026 (at node 5)
	maximum = 0.078 (at node 9)
Accepted packet rate average = 0.052
	minimum = 0.034 (at node 4)
	maximum = 0.064 (at node 1)
Injected flit rate average = 0.051375
	minimum = 0.026 (at node 5)
	maximum = 0.078 (at node 9)
Accepted flit rate average= 0.052
	minimum = 0.034 (at node 4)
	maximum = 0.064 (at node 1)
Injected packet length average = 1
Accepted packet length average = 1
Total in-flight flits = 18 (0 measured)
latency change    = 0.0020257
throughput change = 0.0276442
Warmed up ...Time used is 1500 cycles
Class 0:
Packet latency average = 20.805
	minimum = 7
	maximum = 46
Network latency average = 20.805
	minimum = 7
	maximum = 46
Slowest packet = 17224
Flit latency average = 20.9234
	minimum = 7
	maximum = 46
Slowest flit = 17224
Fragmentation average = 0
	minimum = 0
	maximum = 0
Injected packet rate average = 0.052625
	minimum = 0.032 (at node 11)
	maximum = 0.07 (at node 5)
Accepted packet rate average = 0.05225
	minimum = 0.042 (at node 9)
	maximum = 0.066 (at node 4)
Injected flit rate average = 0.052625
	minimum = 0.032 (at node 11)
	maximum = 0.07 (at node 5)
Accepted flit rate average= 0.05225
	minimum = 0.042 (at node 9)
	maximum = 0.066 (at node 4)
Injected packet length average = 1
Accepted packet length average = 1
Total in-flight flits = 21 (21 measured)
latency change    = 0.00856395
throughput change = 0.00478469
Class 0:
Packet latency average = 20.5006
	minimum = 7
	maximum = 55
Network latency average = 20.5006
	minimum = 7
	maximum = 55
Slowest packet = 17406
Flit latency average = 20.5676
	minimum = 7
	maximum = 55
Slowest flit = 17406
Fragmentation average = 0
	minimum = 0
	maximum = 0
Injected packet rate average = 0.0509375
	minimum = 0.038 (at node 11)
	maximum = 0.064 (at node 13)
Accepted packet rate average = 0.0513125
	minimum = 0.038 (at node 9)
	maximum = 0.064 (at node 4)
Injected flit rate average = 0.0509375
	minimum = 0.038 (at node 11)
	maximum = 0.064 (at node 13)
Accepted flit rate average= 0.0513125
	minimum = 0.038 (at node 9)
	maximum = 0.064 (at node 4)
Injected packet length average = 1
Accepted packet length average = 1
Total in-flight flits = 12 (12 measured)
latency change    = 0.0148472
throughput change = 0.0182704
Class 0:
Packet latency average = 20.8794
	minimum = 7
	maximum = 69
Network latency average = 20.8794
	minimum = 7
	maximum = 69
Slowest packet = 18045
Flit latency average = 20.9184
	minimum = 7
	maximum = 69
Slowest flit = 18045
Fragmentation average = 0
	minimum = 0
	maximum = 0
Injected packet rate average = 0.0512917
	minimum = 0.0446667 (at node 1)
	maximum = 0.0606667 (at node 13)
Accepted packet rate average = 0.0515417
	minimum = 0.0426667 (at node 9)
	maximum = 0.058 (at node 3)
Injected flit rate average = 0.0512917
	minimum = 0.0446667 (at node 1)
	maximum = 0.0606667 (at node 13)
Accepted flit rate average= 0.0515417
	minimum = 0.0426667 (at node 9)
	maximum = 0.058 (at node 3)
Injected packet length average = 1
Accepted packet length average = 1
Total in-flight flits = 12 (12 measured)
latency change    = 0.0181416
throughput change = 0.00444624
Draining all recorded packets ...
Draining remaining packets ...
Time taken is 3053 cycles
Class 0:
Packet latency average = 20.8098
	minimum = 7
	maximum = 49
Network latency average = 20.8098
	minimum = 7
	maximum = 49
Slowest packet = 18577
Flit latency average = 20.8098
	minimum = 7
	maximum = 49
Slowest flit = 18577
Fragmentation average = 0
	minimum = 0
	maximum = 0
Injected packet rate average = 0.050625
	minimum = 0.036 (at node 2)
	maximum = 0.064 (at node 7)
Accepted packet rate average = 0.048625
	minimum = 0.03 (at node 2)
	maximum = 0.068 (at node 11)
Injected flit rate average = 0.050625
	minimum = 0.036 (at node 2)
	maximum = 0.064 (at node 7)
Accepted flit rate average= 0.048625
	minimum = 0.03 (at node 2)
	maximum = 0.068 (at node 11)
Injected packet length average = 1
Accepted packet length average = 1
Total in-flight flits = 16 (0 measured)
latency change    = 1
throughput change = 1
Class 0:
Packet latency average = 20.8996
	minimum = 7
	maximum = 49
Network latency average = 20.8996
	minimum = 7
	maximum = 49
Slowest packet = 18577
Flit latency average = 20.8996
	minimum = 7
	maximum = 49
Slowest flit = 18577
Fragmentation average = 0
	minimum = 0
	maximum = 0
Injected packet rate average = 0.0471875
	minimum = 0.039 (at node 0)
	maximum = 0.058 (at node 10)
Accepted packet rate average = 0.0460625
	minimum = 0.035 (at node 2)
	maximum = 0.07 (at node 11)
Injected flit rate average = 0.0471875
	minimum = 0.039 (at node 0)
	maximum = 0.058 (at node 10)
Accepted flit rate average= 0.0460625
	minimum = 0.035 (at node 2)
	maximum = 0.07 (at node 11)
Injected packet length average = 1
Accepted packet length average = 1
Total in-flight flits = 18 (0 measured)
latency change    = 0.0042979
throughput change = 0.0556309
Class 0:
Packet latency average = 20.5766
	minimum = 7
	maximum = 61
Network latency average = 20.5766
	minimum = 7
	maximum = 61
Slowest packet = 19018
Flit latency average = 20.5766
	minimum = 7
	maximum = 61
Slowest flit = 19018
Fragmentation average = 0
	minimum = 0
	maximum = 0
Injected packet rate average = 0.052125
	minimum = 0.038 (at node 6)
	maximum = 0.064 (at node 3)
Accepted packet rate average = 0.05225
	minimum = 0.032 (at node 12)
	maximum = 0.066 (at node 4)
Injected flit rate average = 0.052125
	minimum = 0.038 (at node 6)
	maximum = 0.064 (at node 3)
Accepted flit rate average= 0.05225
	minimum = 0.032 (at node 12)
	maximum = 0.066 (at node 4)
Injected packet length average = 1
Accepted packet length average = 1
Total in-flight flits = 17 (0 measured)
latency change    = 0.0156993
throughput change = 0.118421
Warmed up ...Time used is 1500 cycles
Class 0:
Packet latency average = 20
	minimum = 7
	maximum = 65
Network latency average = 20
	minimum = 7
	maximum = 65
Slowest packet = 19659
Flit latency average = 20.2298
	minimum = 7
	maximum = 65
Slowest flit = 19659
Fragmentation average = 0
	minimum = 0
	maximum = 0
Injected packet rate average = 0.05075
	minimum = 0.036 (at node 14)
	maximum = 0.064 (at node 12)
Accepted packet rate average = 0.051125
	minimum = 0.038 (at node 11)
	maximum = 0.066 (at node 9)
Injected flit rate average = 0.05075
	minimum = 0.036 (at node 14)
	maximum = 0.064 (at node 12)
Accepted flit rate average= 0.051125
	minimum = 0.038 (at node 11)
	maximum = 0.066 (at node 9)
Injected packet length average = 1
Accepted packet length average = 1
Total in-flight flits = 14 (14 measured)
latency change    = 0.0288278
throughput change = 0.0220049
Class 0:
Packet latency average = 20.0844
	minimum = 7
	maximum = 65
Network latency average = 20.0844
	minimum = 7
	maximum = 65
Slowest packet = 19659
Flit latency average = 20.1985
	minimum = 7
	maximum = 65
Slowest flit = 19659
Fragmentation average = 0
	minimum = 0
	maximum = 0
Injected packet rate average = 0.050625
	minimum = 0.034 (at node 15)
	maximum = 0.064 (at node 13)
Accepted packet rate average = 0.0506875
	minimum = 0.04 (at node 10)
	maximum = 0.064 (at node 4)
Injected flit rate average = 0.050625
	minimum = 0.034 (at node 15)
	maximum = 0.064 (at node 13)
Accepted flit rate average= 0.0506875
	minimum = 0.04 (at node 10)
	maximum = 0.064 (at node 4)
Injected packet length average = 1
Accepted packet length average = 1
Total in-flight flits = 16 (16 measured)
latency change    = 0.00420142
throughput change = 0.00863132
Class 0:
Packet latency average = 20.1397
	minimum = 7
	maximum = 65
Network latency average = 20.1397
	minimum = 7
	maximum = 65
Slowest packet = 19659
Flit latency average = 20.2166
	minimum = 7
	maximum = 65
Slowest flit = 19659
Fragmentation average = 0
	minimum = 0
	maximum = 0
Injected packet rate average = 0.0494167
	minimum = 0.0353333 (at node 15)
	maximum = 0.0626667 (at node 11)
Accepted packet rate average = 0.049625
	minimum = 0.042 (at node 2)
	maximum = 0.0633333 (at node 4)
Injected flit rate average = 0.0494167
	minimum = 0.0353333 (at node 15)
	maximum = 0.0626667 (at node 11)
Accepted flit rate average= 0.049625
	minimum = 0.042 (at node 2)
	maximum = 0.0633333 (at node 4)
Injected packet length average = 1
Accepted packet length average = 1
Total in-flight flits = 12 (12 measured)
latency change    = 0.00274634
throughput change = 0.0214106
Draining all recorded packets ...
Draining remaining packets ...
Time taken is 3044 cycles
Class 0:
Packet latency average = 20.3599
	minimum = 7
	maximum = 48
Network latency average = 20.3599
	minimum = 7
	maximum = 48
Slowest packet = 20919
Flit latency average = 20.3599
	minimum = 7
	maximum = 48
Slowest flit = 20919
Fragmentation average = 0
	minimum = 0
	maximum = 0
Injected packet rate average = 0.047875
	minimum = 0.034 (at node 2)
	maximum = 0.068 (at node 7)
Accepted packet rate average = 0.0455
	minimum = 0.034 (at node 0)
	maximum = 0.066 (at node 14)
Injected flit rate average = 0.047875
	minimum = 0.034 (at node 2)
	maximum = 0.068 (at node 7)
Accepted flit rate average= 0.0455
	minimum = 0.034 (at node 0)
	maximum = 0.066 (at node 14)
Injected packet length average = 1
Accepted packet length average = 1
Total in-flight flits = 19 (0 measured)
latency change    = 1
throughput change = 1
Class 0:
Packet latency average = 20.9561
	minimum = 7
	maximum = 55
Network latency average = 20.9561
	minimum = 7
	maximum = 55
Slowest packet = 21094
Flit latency average = 20.9561
	minimum = 7
	maximum = 55
Slowest flit = 21094
Fragmentation average = 0
	minimum = 0
	maximum = 0
Injected packet rate average = 0.04775
	minimum = 0.036 (at node 6)
	maximum = 0.072 (at node 7)
Accepted packet rate average = 0.0469375
	minimum = 0.033 (at node 0)
	maximum = 0.063 (at node 2)
Injected flit rate average = 0.04775
	minimum = 0.036 (at node 6)
	maximum = 0.072 (at node 7)
Accepted flit rate average= 0.0469375
	minimum = 0.033 (at node 0)
	maximum = 0.063 (at node 2)
Injected packet length average = 1
Accepted packet length average = 1
Total in-flight flits = 13 (0 measured)
latency change    = 0.0284485
throughput change = 0.0306258
Class 0:
Packet latency average = 21.6127
	minimum = 7
	maximum = 59
Network latency average = 21.6127
	minimum = 7
	maximum = 59
Slowest packet = 21522
Flit latency average = 21.6127
	minimum = 7
	maximum = 59
Slowest flit = 21522
Fragmentation average = 0
	minimum = 0
	maximum = 0
Injected packet rate average = 0.048625
	minimum = 0.028 (at node 5)
	maximum = 0.062 (at node 4)
Accepted packet rate average = 0.049375
	minimum = 0.038 (at node 8)
	maximum = 0.066 (at node 4)
Injected flit rate average = 0.048625
	minimum = 0.028 (at node 5)
	maximum = 0.062 (at node 4)
Accepted flit rate average= 0.049375
	minimum = 0.038 (at node 8)
	maximum = 0.066 (at node 4)
Injected packet length average = 1
Accepted packet length average = 1
Total in-flight flits = 7 (0 measured)
latency change    = 0.0303803
throughput change = 0.0493671
Warmed up ...Time used is 1500 cycles
Class 0:
Packet latency average = 20.1432
	minimum = 7
	maximum = 54
Network latency average = 20.1432
	minimum = 7
	maximum = 54
Slowest packet = 22087
Flit latency average = 20.1633
	minimum = 7
	maximum = 54
Slowest flit = 22087
Fragmentation average = 0
	minimum = 0
	maximum = 0
Injected packet rate average = 0.05025
	minimum = 0.034 (at node 7)
	maximum = 0.064 (at node 5)
Accepted packet rate average = 0.04975
	minimum = 0.04 (at node 5)
	maximum = 0.062 (at node 3)
Injected flit rate average = 0.05025
	minimum = 0.034 (at node 7)
	maximum = 0.064 (at node 5)
Accepted flit rate average= 0.04975
	minimum = 0.04 (at node 5)
	maximum = 0.062 (at node 3)
Injected packet length average = 1
Accepted packet length average = 1
Total in-flight flits = 11 (11 measured)
latency change    = 0.0729494
throughput change = 0.00753769
Class 0:
Packet latency average = 20.4756
	minimum = 7
	maximum = 54
Network latency average = 20.4756
	minimum = 7
	maximum = 54
Slowest packet = 22087
Flit latency average = 20.4828
	minimum = 7
	maximum = 54
Slowest flit = 22087
Fragmentation average = 0
	minimum = 0
	maximum = 0
Injected packet rate average = 0.0493125
	minimum = 0.037 (at node 7)
	maximum = 0.059 (at node 12)
Accepted packet rate average = 0.0490625
	minimum = 0.038 (at node 5)
	maximum = 0.058 (at node 3)
Injected flit rate average = 0.0493125
	minimum = 0.037 (at node 7)
	maximum = 0.059 (at node 12)
Accepted flit rate average= 0.0490625
	minimum = 0.038 (at node 5)
	maximum = 0.058 (at node 3)
Injected packet length average = 1
Accepted packet length average = 1
Total in-flight flits = 11 (11 measured)
latency change    = 0.0162318
throughput change = 0.0140127
Class 0:
Packet latency average = 20.3422
	minimum = 7
	maximum = 54
Network latency average = 20.3422
	minimum = 7
	maximum = 54
Slowest packet = 22087
Flit latency average = 20.3477
	minimum = 7
	maximum = 54
Slowest flit = 22087
Fragmentation average = 0
	minimum = 0
	maximum = 0
Injected packet rate average = 0.0503333
	minimum = 0.0406667 (at node 2)
	maximum = 0.0573333 (at node 4)
Accepted packet rate average = 0.0502083
	minimum = 0.0406667 (at node 12)
	maximum = 0.06 (at node 9)
Injected flit rate average = 0.0503333
	minimum = 0.0406667 (at node 2)
	maximum = 0.0573333 (at node 4)
Accepted flit rate average= 0.0502083
	minimum = 0.0406667 (at node 12)
	maximum = 0.06 (at node 9)
Injected packet length average = 1
Accepted packet length average = 1
Total in-flight flits = 10 (10 measured)
latency change    = 0.0065549
throughput change = 0.0228216
Class 0:
Packet latency average = 20.3193
	minimum = 7
	maximum = 54
Network latency average = 20.3193
	minimum = 7
	maximum = 54
Slowest packet = 22087
Flit latency average = 20.3236
	minimum = 7
	maximum = 54
Slowest flit = 22087
Fragmentation average = 0
	minimum = 0
	maximum = 0
Injected packet rate average = 0.0492812
	minimum = 0.0365 (at node 7)
	maximum = 0.0565 (at node 9)
Accepted packet rate average = 0.0491562
	minimum = 0.0385 (at node 12)
	maximum = 0.06 (at node 9)
Injected flit rate average = 0.0492812
	minimum = 0.0365 (at node 7)
	maximum = 0.0565 (at node 9)
Accepted flit rate average= 0.0491562
	minimum = 0.0385 (at node 12)
	maximum = 0.06 (at node 9)
Injected packet length average = 1
Accepted packet length average = 1
Total in-flight flits = 11 (11 measured)
latency change    = 0.00112958
throughput change = 0.0214028
Draining all recorded packets ...
Draining remaining packets ...
Time taken is 3570 cycles
Class 0:
Packet latency average = 20.5355
	minimum = 7
	maximum = 52
Network latency average = 20.5355
	minimum = 7
	maximum = 52
Slowest packet = 23709
Flit latency average = 20.5355
	minimum = 7
	maximum = 52
Slowest flit = 23709
Fragmentation average = 0
	minimum = 0
	maximum = 0
Injected packet rate average = 0.05025
	minimum = 0.04 (at node 9)
	maximum = 0.064 (at node 2)
Accepted packet rate average = 0.04925
	minimum = 0.034 (at node 0)
	maximum = 0.06 (at node 9)
Injected flit rate average = 0.05025
	minimum = 0.04 (at node 9)
	maximum = 0.064 (at node 2)
Accepted flit rate average= 0.04925
	minimum = 0.034 (at node 0)
	maximum = 0.06 (at node 9)
Injected packet length average = 1
Accepted packet length average = 1
Total in-flight flits = 8 (0 measured)
latency change    = 1
throughput change = 1
Class 0:
Packet latency average = 20.6451
	minimum = 7
	maximum = 52
Network latency average = 20.6451
	minimum = 7
	maximum = 52
Slowest packet = 23709
Flit latency average = 20.6451
	minimum = 7
	maximum = 52
Slowest flit = 23709
Fragmentation average = 0
	minimum = 0
	maximum = 0
Injected packet rate average = 0.0484375
	minimum = 0.035 (at node 9)
	maximum = 0.058 (at node 14)
Accepted packet rate average = 0.047375
	minimum = 0.032 (at node 15)
	maximum = 0.059 (at node 1)
Injected flit rate average = 0.0484375
	minimum = 0.035 (at node 9)
	maximum = 0.058 (at node 14)
Accepted flit rate average= 0.047375
	minimum = 0.032 (at node 15)
	maximum = 0.059 (at node 1)
Injected packet length average = 1
Accepted packet length average = 1
Total in-flight flits = 17 (0 measured)
latency change    = 0.00530807
throughput change = 0.0395778
Class 0:
Packet latency average = 21.9801
	minimum = 7
	maximum = 56
Network latency average = 21.9801
	minimum = 7
	maximum = 56
Slowest packet = 24335
Flit latency average = 21.9801
	minimum = 7
	maximum = 56
Slowest flit = 24335
Fragmentation average = 0
	minimum = 0
	maximum = 0
Injected packet rate average = 0.05025
	minimum = 0.038 (at node 1)
	maximum = 0.064 (at node 3)
Accepted packet rate average = 0.050375
	minimum = 0.03 (at node 6)
	maximum = 0.068 (at node 0)
Injected flit rate average = 0.05025
	minimum = 0.038 (at node 1)
	maximum = 0.064 (at node 3)
Accepted flit rate average= 0.050375
	minimum = 0.03 (at node 6)
	maximum = 0.068 (at node 0)
Injected packet length average = 1
Accepted packet length average = 1
Total in-flight flits = 16 (0 measured)
latency change    = 0.060738
throughput change = 0.0595533
Warmed up ...Time used is 1500 cycles
Class 0:
Packet latency average = 20.4913
	minimum = 7
	maximum = 43
Network latency average = 20.4913
	minimum = 7
	maximum = 43
Slowest packet = 24607
Flit latency average = 20.7146
	minimum = 7
	maximum = 47
Slowest flit = 24510
Fragmentation average = 0
	minimum = 0
	maximum = 0
Injected packet rate average = 0.051625
	minimum = 0.032 (at node 10)
	maximum = 0.074 (at node 14)
Accepted packet rate average = 0.052125
	minimum = 0.034 (at node 9)
	maximum = 0.074 (at node 10)
Injected flit rate average = 0.051625
	minimum = 0.032 (at node 10)
	maximum = 0.074 (at node 14)
Accepted flit rate average= 0.052125
	minimum = 0.034 (at node 9)
	maximum = 0.074 (at node 10)
Injected packet length average = 1
Accepted packet length average = 1
Total in-flight flits = 12 (12 measured)
latency change    = 0.0726591
throughput change = 0.0335731
Class 0:
Packet latency average = 20.3433
	minimum = 7
	maximum = 56
Network latency average = 20.3433
	minimum = 7
	maximum = 56
Slowest packet = 25254
Flit latency average = 20.4602
	minimum = 7
	maximum = 56
Slowest flit = 25254
Fragmentation average = 0
	minimum = 0
	maximum = 0
Injected packet rate average = 0.0513125
	minimum = 0.046 (at node 2)
	maximum = 0.06 (at node 14)
Accepted packet rate average = 0.0510625
	minimum = 0.039 (at node 4)
	maximum = 0.067 (at node 10)
Injected flit rate average = 0.0513125
	minimum = 0.046 (at node 2)
	maximum = 0.06 (at node 14)
Accepted flit rate average= 0.0510625
	minimum = 0.039 (at node 4)
	maximum = 0.067 (at node 10)
Injected packet length average = 1
Accepted packet length average = 1
Total in-flight flits = 20 (20 measured)
latency change    = 0.00727271
throughput change = 0.0208078
Class 0:
Packet latency average = 20.4856
	minimum = 7
	maximum = 60
Network latency average = 20.4856
	minimum = 7
	maximum = 60
Slowest packet = 25477
Flit latency average = 20.5611
	minimum = 7
	maximum = 60
Slowest flit = 25477
Fragmentation average = 0
	minimum = 0
	maximum = 0
Injected packet rate average = 0.051375
	minimum = 0.0446667 (at node 8)
	maximum = 0.0613333 (at node 14)
Accepted packet rate average = 0.0514583
	minimum = 0.0413333 (at node 7)
	maximum = 0.0633333 (at node 10)
Injected flit rate average = 0.051375
	minimum = 0.0446667 (at node 8)
	maximum = 0.0613333 (at node 14)
Accepted flit rate average= 0.0514583
	minimum = 0.0413333 (at node 7)
	maximum = 0.0633333 (at node 10)
Injected packet length average = 1
Accepted packet length average = 1
Total in-flight flits = 14 (14 measured)
latency change    = 0.00694746
throughput change = 0.00769231
Class 0:
Packet latency average = 20.4388
	minimum = 7
	maximum = 65
Network latency average = 20.4388
	minimum = 7
	maximum = 65
Slowest packet = 25837
Flit latency average = 20.496
	minimum = 7
	maximum = 65
Slowest flit = 25837
Fragmentation average = 0
	minimum = 0
	maximum = 0
Injected packet rate average = 0.0512188
	minimum = 0.0445 (at node 8)
	maximum = 0.059 (at node 14)
Accepted packet rate average = 0.0512813
	minimum = 0.0425 (at node 7)
	maximum = 0.0605 (at node 3)
Injected flit rate average = 0.0512188
	minimum = 0.0445 (at node 8)
	maximum = 0.059 (at node 14)
Accepted flit rate average= 0.0512813
	minimum = 0.0425 (at node 7)
	maximum = 0.0605 (at node 3)
Injected packet length average = 1
Accepted packet length average = 1
Total in-flight flits = 14 (14 measured)
latency change    = 0.00229342
throughput change = 0.00345318
Draining all recorded packets ...
Draining remaining packets ...
Time taken is 3563 cycles
Class 0:
Packet latency average = 21.5669
	minimum = 7
	maximum = 49
Network latency average = 21.5669
	minimum = 7
	maximum = 49
Slowest packet = 26446
Flit latency average = 21.5669
	minimum = 7
	maximum = 49
Slowest flit = 26446
Fragmentation average = 0
	minimum = 0
	maximum = 0
Injected packet rate average = 0.050625
	minimum = 0.032 (at node 9)
	maximum = 0.072 (at node 14)
Accepted packet rate average = 0.047625
	minimum = 0.036 (at node 1)
	maximum = 0.066 (at node 11)
Injected flit rate average = 0.050625
	minimum = 0.032 (at node 9)
	maximum = 0.072 (at node 14)
Accepted flit rate average= 0.047625
	minimum = 0.036 (at node 1)
	maximum = 0.066 (at node 11)
Injected packet length average = 1
Accepted packet length average = 1
Total in-flight flits = 24 (0 measured)
latency change    = 1
throughput change = 1
Class 0:
Packet latency average = 21.1256
	minimum = 7
	maximum = 49
Network latency average = 21.1256
	minimum = 7
	maximum = 49
Slowest packet = 26446
Flit latency average = 21.1256
	minimum = 7
	maximum = 49
Slowest flit = 26446
Fragmentation average = 0
	minimum = 0
	maximum = 0
Injected packet rate average = 0.0493125
	minimum = 0.034 (at node 4)
	maximum = 0.062 (at node 14)
Accepted packet rate average = 0.04875
	minimum = 0.035 (at node 14)
	maximum = 0.062 (at node 11)
Injected flit rate average = 0.0493125
	minimum = 0.034 (at node 4)
	maximum = 0.062 (at node 14)
Accepted flit rate average= 0.04875
	minimum = 0.035 (at node 14)
	maximum = 0.062 (at node 11)
Injected packet length average = 1
Accepted packet length average = 1
Total in-flight flits = 9 (0 measured)
latency change    = 0.0208887
throughput change = 0.0230769
Class 0:
Packet latency average = 20.5095
	minimum = 7
	maximum = 46
Network latency average = 20.5095
	minimum = 7
	maximum = 46
Slowest packet = 27163
Flit latency average = 20.5095
	minimum = 7
	maximum = 46
Slowest flit = 27163
Fragmentation average = 0
	minimum = 0
	maximum = 0
Injected packet rate average = 0.04725
	minimum = 0.038 (at node 6)
	maximum = 0.064 (at node 12)
Accepted packet rate average = 0.046125
	minimum = 0.032 (at node 13)
	maximum = 0.06 (at node 4)
Injected flit rate average = 0.04725
	minimum = 0.038 (at node 6)
	maximum = 0.064 (at node 12)
Accepted flit rate average= 0.046125
	minimum = 0.032 (at node 13)
	maximum = 0.06 (at node 4)
Injected packet length average = 1
Accepted packet length average = 1
Total in-flight flits = 18 (0 measured)
latency change    = 0.0300425
throughput change = 0.0569106
Warmed up ...Time used is 1500 cycles
Class 0:
Packet latency average = 20.7481
	minimum = 7
	maximum = 43
Network latency average = 20.7481
	minimum = 7
	maximum = 43
Slowest packet = 27429
Flit latency average = 20.804
	minimum = 7
	maximum = 43
Slowest flit = 27429
Fragmentation average = 0
	minimum = 0
	maximum = 0
Injected packet rate average = 0.04925
	minimum = 0.038 (at node 5)
	maximum = 0.066 (at node 9)
Accepted packet rate average = 0.050375
	minimum = 0.028 (at node 4)
	maximum = 0.07 (at node 7)
Injected flit rate average = 0.04925
	minimum = 0.038 (at node 5)
	maximum = 0.066 (at node 9)
Accepted flit rate average= 0.050375
	minimum = 0.028 (at node 4)
	maximum = 0.07 (at node 7)
Injected packet length average = 1
Accepted packet length average = 1
Total in-flight flits = 9 (9 measured)
latency change    = 0.0114983
throughput change = 0.0843672
Class 0:
Packet latency average = 20.8044
	minimum = 7
	maximum = 61
Network latency average = 20.8044
	minimum = 7
	maximum = 61
Slowest packet = 28104
Flit latency average = 20.8301
	minimum = 7
	maximum = 61
Slowest flit = 28104
Fragmentation average = 0
	minimum = 0
	maximum = 0
Injected packet rate average = 0.05225
	minimum = 0.042 (at node 3)
	maximum = 0.063 (at node 9)
Accepted packet rate average = 0.05225
	minimum = 0.034 (at node 1)
	maximum = 0.061 (at node 14)
Injected flit rate average = 0.05225
	minimum = 0.042 (at node 3)
	maximum = 0.063 (at node 9)
Accepted flit rate average= 0.05225
	minimum = 0.034 (at node 1)
	maximum = 0.061 (at node 14)
Injected packet length average = 1
Accepted packet length average = 1
Total in-flight flits = 18 (18 measured)
latency change    = 0.00270851
throughput change = 0.0358852
Class 0:
Packet latency average = 20.8282
	minimum = 7
	maximum = 61
Network latency average = 20.8282
	minimum = 7
	maximum = 61
Slowest packet = 28104
Flit latency average = 20.8451
	minimum = 7
	maximum = 61
Slowest flit = 28104
Fragmentation average = 0
	minimum = 0
	maximum = 0
Injected packet rate average = 0.0514583
	minimum = 0.0433333 (at node 3)
	maximum = 0.0666667 (at node 9)
Accepted packet rate average = 0.0519167
	minimum = 0.04 (at node 1)
	maximum = 0.0633333 (at node 14)
Injected flit rate average = 0.0514583
	minimum = 0.0433333 (at node 3)
	maximum = 0.0666667 (at node 9)
Accepted flit rate average= 0.0519167
	minimum = 0.04 (at node 1)
	maximum = 0.0633333 (at node 14)
Injected packet length average = 1
Accepted packet length average = 1
Total in-flight flits = 7 (7 measured)
latency change    = 0.00114148
throughput change = 0.00642055
Class 0:
Packet latency average = 20.8619
	minimum = 7
	maximum = 66
Network latency average = 20.8619
	minimum = 7
	maximum = 66
Slowest packet = 28823
Flit latency average = 20.8745
	minimum = 7
	maximum = 66
Slowest flit = 28823
Fragmentation average = 0
	minimum = 0
	maximum = 0
Injected packet rate average = 0.0509063
	minimum = 0.046 (at node 2)
	maximum = 0.0625 (at node 9)
Accepted packet rate average = 0.0507812
	minimum = 0.0425 (at node 1)
	maximum = 0.0585 (at node 13)
Injected flit rate average = 0.0509063
	minimum = 0.046 (at node 2)
	maximum = 0.0625 (at node 9)
Accepted flit rate average= 0.0507812
	minimum = 0.0425 (at node 1)
	maximum = 0.0585 (at node 13)
Injected packet length average = 1
Accepted packet length average = 1
Total in-flight flits = 22 (22 measured)
latency change    = 0.00161436
throughput change = 0.022359
Draining all recorded packets ...
Draining remaining packets ...
Time taken is 3579 cycles
Class 0:
Packet latency average = 20.2085
	minimum = 7
	maximum = 42
Network latency average = 20.2085
	minimum = 7
	maximum = 42
Slowest packet = 29095
Flit latency average = 20.2085
	minimum = 7
	maximum = 42
Slowest flit = 29095
Fragmentation average = 0
	minimum = 0
	maximum = 0
Injected packet rate average = 0.046625
	minimum = 0.03 (at node 1)
	maximum = 0.07 (at node 4)
Accepted packet rate average = 0.044375
	minimum = 0.032 (at node 1)
	maximum = 0.062 (at node 9)
Injected flit rate average = 0.046625
	minimum = 0.03 (at node 1)
	maximum = 0.07 (at node 4)
Accepted flit rate average= 0.044375
	minimum = 0.032 (at node 1)
	maximum = 0.062 (at node 9)
Injected packet length average = 1
Accepted packet length average = 1
Total in-flight flits = 18 (0 measured)
latency change    = 1
throughput change = 1
Class 0:
Packet latency average = 20.6419
	minimum = 7
	maximum = 51
Network latency average = 20.6419
	minimum = 7
	maximum = 51
Slowest packet = 29476
Flit latency average = 20.6419
	minimum = 7
	maximum = 51
Slowest flit = 29476
Fragmentation average = 0
	minimum = 0
	maximum = 0
Injected packet rate average = 0.049125
	minimum = 0.034 (at node 5)
	maximum = 0.069 (at node 4)
Accepted packet rate average = 0.048
	minimum = 0.039 (at node 1)
	maximum = 0.059 (at node 10)
Injected flit rate average = 0.049125
	minimum = 0.034 (at node 5)
	maximum = 0.069 (at node 4)
Accepted flit rate average= 0.048
	minimum = 0.039 (at node 1)
	maximum = 0.059 (at node 10)
Injected packet length average = 1
Accepted packet length average = 1
Total in-flight flits = 18 (0 measured)
latency change    = 0.0209998
throughput change = 0.0755208
Class 0:
Packet latency average = 20.2354
	minimum = 7
	maximum = 52
Network latency average = 20.2354
	minimum = 7
	maximum = 52
Slowest packet = 30094
Flit latency average = 20.2354
	minimum = 7
	maximum = 52
Slowest flit = 30094
Fragmentation average = 0
	minimum = 0
	maximum = 0
Injected packet rate average = 0.04725
	minimum = 0.032 (at node 2)
	maximum = 0.062 (at node 3)
Accepted packet rate average = 0.04725
	minimum = 0.036 (at node 10)
	maximum = 0.062 (at node 15)
Injected flit rate average = 0.04725
	minimum = 0.032 (at node 2)
	maximum = 0.062 (at node 3)
Accepted flit rate average= 0.04725
	minimum = 0.036 (at node 10)
	maximum = 0.062 (at node 15)
Injected packet length average = 1
Accepted packet length average = 1
Total in-flight flits = 18 (0 measured)
latency change    = 0.0200874
throughput change = 0.015873
Warmed up ...Time used is 1500 cycles
Class 0:
Packet latency average = 20.5401
	minimum = 7
	maximum = 61
Network latency average = 20.5401
	minimum = 7
	maximum = 61
Slowest packet = 30294
Flit latency average = 20.6503
	minimum = 7
	maximum = 61
Slowest flit = 30294
Fragmentation average = 0
	minimum = 0
	maximum = 0
Injected packet rate average = 0.054
	minimum = 0.03 (at node 6)
	maximum = 0.07 (at node 11)
Accepted packet rate average = 0.053625
	minimum = 0.034 (at node 0)
	maximum = 0.078 (at node 14)
Injected flit rate average = 0.054
	minimum = 0.03 (at node 6)
	maximum = 0.07 (at node 11)
Accepted flit rate average= 0.053625
	minimum = 0.034 (at node 0)
	maximum = 0.078 (at node 14)
Injected packet length average = 1
Accepted packet length average = 1
Total in-flight flits = 21 (21 measured)
latency change    = 0.0148342
throughput change = 0.118881
Class 0:
Packet latency average = 20.5872
	minimum = 7
	maximum = 78
Network latency average = 20.5872
	minimum = 7
	maximum = 78
Slowest packet = 30861
Flit latency average = 20.6419
	minimum = 7
	maximum = 78
Slowest flit = 30861
Fragmentation average = 0
	minimum = 0
	maximum = 0
Injected packet rate average = 0.052875
	minimum = 0.042 (at node 6)
	maximum = 0.06 (at node 11)
Accepted packet rate average = 0.0530625
	minimum = 0.046 (at node 1)
	maximum = 0.072 (at node 14)
Injected flit rate average = 0.052875
	minimum = 0.042 (at node 6)
	maximum = 0.06 (at node 11)
Accepted flit rate average= 0.0530625
	minimum = 0.046 (at node 1)
	maximum = 0.072 (at node 14)
Injected packet length average = 1
Accepted packet length average = 1
Total in-flight flits = 15 (15 measured)
latency change    = 0.00228774
throughput change = 0.0106007
Class 0:
Packet latency average = 20.2857
	minimum = 7
	maximum = 78
Network latency average = 20.2857
	minimum = 7
	maximum = 78
Slowest packet = 30861
Flit latency average = 20.3274
	minimum = 7
	maximum = 78
Slowest flit = 30861
Fragmentation average = 0
	minimum = 0
	maximum = 0
Injected packet rate average = 0.0515417
	minimum = 0.044 (at node 15)
	maximum = 0.06 (at node 11)
Accepted packet rate average = 0.0517917
	minimum = 0.0453333 (at node 0)
	maximum = 0.0626667 (at node 14)
Injected flit rate average = 0.0515417
	minimum = 0.044 (at node 15)
	maximum = 0.06 (at node 11)
Accepted flit rate average= 0.0517917
	minimum = 0.0453333 (at node 0)
	maximum = 0.0626667 (at node 14)
Injected packet length average = 1
Accepted packet length average = 1
Total in-flight flits = 12 (12 measured)
latency change    = 0.0148642
throughput change = 0.0245374
Class 0:
Packet latency average = 20.3367
	minimum = 7
	maximum = 78
Network latency average = 20.3367
	minimum = 7
	maximum = 78
Slowest packet = 30861
Flit latency average = 20.3681
	minimum = 7
	maximum = 78
Slowest flit = 30861
Fragmentation average = 0
	minimum = 0
	maximum = 0
Injected packet rate average = 0.0509375
	minimum = 0.0445 (at node 2)
	maximum = 0.062 (at node 11)
Accepted packet rate average = 0.0506875
	minimum = 0.0455 (at node 9)
	maximum = 0.061 (at node 14)
Injected flit rate average = 0.0509375
	minimum = 0.0445 (at node 2)
	maximum = 0.062 (at node 11)
Accepted flit rate average= 0.0506875
	minimum = 0.0455 (at node 9)
	maximum = 0.061 (at node 14)
Injected packet length average = 1
Accepted packet length average = 1
Total in-flight flits = 26 (26 measured)
latency change    = 0.00250504
throughput change = 0.0217838
Draining all recorded packets ...
Draining remaining packets ...
Time taken is 3564 cycles
Class 0:
Packet latency average = 20.1199
	minimum = 7
	maximum = 47
Network latency average = 20.1199
	minimum = 7
	maximum = 47
Slowest packet = 31960
Flit latency average = 20.1199
	minimum = 7
	maximum = 47
Slowest flit = 31960
Fragmentation average = 0
	minimum = 0
	maximum = 0
Injected packet rate average = 0.047625
	minimum = 0.036 (at node 1)
	maximum = 0.08 (at node 14)
Accepted packet rate average = 0.045875
	minimum = 0.024 (at node 0)
	maximum = 0.066 (at node 11)
Injected flit rate average = 0.047625
	minimum = 0.036 (at node 1)
	maximum = 0.08 (at node 14)
Accepted flit rate average= 0.045875
	minimum = 0.024 (at node 0)
	maximum = 0.066 (at node 11)
Injected packet length average = 1
Accepted packet length average = 1
Total in-flight flits = 14 (0 measured)
latency change    = 1
throughput change = 1
Class 0:
Packet latency average = 20.8871
	minimum = 7
	maximum = 69
Network latency average = 20.8871
	minimum = 7
	maximum = 69
Slowest packet = 32498
Flit latency average = 20.8871
	minimum = 7
	maximum = 69
Slowest flit = 32498
Fragmentation average = 0
	minimum = 0
	maximum = 0
Injected packet rate average = 0.0509375
	minimum = 0.039 (at node 11)
	maximum = 0.064 (at node 2)
Accepted packet rate average = 0.0498125
	minimum = 0.036 (at node 7)
	maximum = 0.066 (at node 12)
Injected flit rate average = 0.0509375
	minimum = 0.039 (at node 11)
	maximum = 0.064 (at node 2)
Accepted flit rate average= 0.0498125
	minimum = 0.036 (at node 7)
	maximum = 0.066 (at node 12)
Injected packet length average = 1
Accepted packet length average = 1
Total in-flight flits = 18 (0 measured)
latency change    = 0.0367302
throughput change = 0.0790464
Class 0:
Packet latency average = 20.4837
	minimum = 7
	maximum = 51
Network latency average = 20.4837
	minimum = 7
	maximum = 51
Slowest packet = 32896
Flit latency average = 20.4837
	minimum = 7
	maximum = 51
Slowest flit = 32896
Fragmentation average = 0
	minimum = 0
	maximum = 0
Injected packet rate average = 0.045625
	minimum = 0.018 (at node 15)
	maximum = 0.064 (at node 0)
Accepted packet rate average = 0.046
	minimum = 0.026 (at node 11)
	maximum = 0.068 (at node 2)
Injected flit rate average = 0.045625
	minimum = 0.018 (at node 15)
	maximum = 0.064 (at node 0)
Accepted flit rate average= 0.046
	minimum = 0.026 (at node 11)
	maximum = 0.068 (at node 2)
Injected packet length average = 1
Accepted packet length average = 1
Total in-flight flits = 15 (0 measured)
latency change    = 0.0196928
throughput change = 0.0828804
Warmed up ...Time used is 1500 cycles
Class 0:
Packet latency average = 21.0198
	minimum = 7
	maximum = 64
Network latency average = 21.0198
	minimum = 7
	maximum = 64
Slowest packet = 33145
Flit latency average = 21.1619
	minimum = 7
	maximum = 64
Slowest flit = 33145
Fragmentation average = 0
	minimum = 0
	maximum = 0
Injected packet rate average = 0.052375
	minimum = 0.04 (at node 0)
	maximum = 0.078 (at node 12)
Accepted packet rate average = 0.0525
	minimum = 0.042 (at node 1)
	maximum = 0.064 (at node 10)
Injected flit rate average = 0.052375
	minimum = 0.04 (at node 0)
	maximum = 0.078 (at node 12)
Accepted flit rate average= 0.0525
	minimum = 0.042 (at node 1)
	maximum = 0.064 (at node 10)
Injected packet length average = 1
Accepted packet length average = 1
Total in-flight flits = 14 (14 measured)
latency change    = 0.0255026
throughput change = 0.12381
Class 0:
Packet latency average = 20.265
	minimum = 7
	maximum = 64
Network latency average = 20.265
	minimum = 7
	maximum = 64
Slowest packet = 33145
Flit latency average = 20.3501
	minimum = 7
	maximum = 64
Slowest flit = 33145
Fragmentation average = 0
	minimum = 0
	maximum = 0
Injected packet rate average = 0.052125
	minimum = 0.041 (at node 0)
	maximum = 0.076 (at node 13)
Accepted packet rate average = 0.052125
	minimum = 0.041 (at node 8)
	maximum = 0.065 (at node 11)
Injected flit rate average = 0.052125
	minimum = 0.041 (at node 0)
	maximum = 0.076 (at node 13)
Accepted flit rate average= 0.052125
	minimum = 0.041 (at node 8)
	maximum = 0.065 (at node 11)
Injected packet length average = 1
Accepted packet length average = 1
Total in-flight flits = 15 (15 measured)
latency change    = 0.0372464
throughput change = 0.00719424
Class 0:
Packet latency average = 20.4906
	minimum = 7
	maximum = 64
Network latency average = 20.4906
	minimum = 7
	maximum = 64
Slowest packet = 33145
Flit latency average = 20.5452
	minimum = 7
	maximum = 64
Slowest flit = 33145
Fragmentation average = 0
	minimum = 0
	maximum = 0
Injected packet rate average = 0.0518333
	minimum = 0.042 (at node 0)
	maximum = 0.0706667 (at node 13)
Accepted packet rate average = 0.0516667
	minimum = 0.04 (at node 8)
	maximum = 0.0633333 (at node 10)
Injected flit rate average = 0.0518333
	minimum = 0.042 (at node 0)
	maximum = 0.0706667 (at node 13)
Accepted flit rate average= 0.0516667
	minimum = 0.04 (at node 8)
	maximum = 0.0633333 (at node 10)
Injected packet length average = 1
Accepted packet length average = 1
Total in-flight flits = 19 (19 measured)
latency change    = 0.0110126
throughput change = 0.00887097
Class 0:
Packet latency average = 20.5926
	minimum = 7
	maximum = 64
Network latency average = 20.5926
	minimum = 7
	maximum = 64
Slowest packet = 33145
Flit latency average = 20.6323
	minimum = 7
	maximum = 64
Slowest flit = 33145
Fragmentation average = 0
	minimum = 0
	maximum = 0
Injected packet rate average = 0.0521563
	minimum = 0.0435 (at node 1)
	maximum = 0.063 (at node 13)
Accepted packet rate average = 0.0520938
	minimum = 0.0405 (at node 8)
	maximum = 0.062 (at node 11)
Injected flit rate average = 0.0521563
	minimum = 0.0435 (at node 1)
	maximum = 0.063 (at node 13)
Accepted flit rate average= 0.0520938
	minimum = 0.0405 (at node 8)
	maximum = 0.062 (at node 11)
Injected packet length average = 1
Accepted packet length average = 1
Total in-flight flits = 17 (17 measured)
latency change    = 0.00495337
throughput change = 0.00819836
Draining all recorded packets ...
Draining remaining packets ...
Time taken is 3564 cycles
Class 0:
Packet latency average = 19.776
	minimum = 7
	maximum = 46
Network latency average = 19.776
	minimum = 7
	maximum = 46
Slowest packet = 34902
Flit latency average = 19.776
	minimum = 7
	maximum = 46
Slowest flit = 34902
Fragmentation average = 0
	minimum = 0
	maximum = 0
Injected packet rate average = 0.049375
	minimum = 0.032 (at node 7)
	maximum = 0.064 (at node 4)
Accepted packet rate average = 0.046875
	minimum = 0.022 (at node 13)
	maximum = 0.064 (at node 2)
Injected flit rate average = 0.049375
	minimum = 0.032 (at node 7)
	maximum = 0.064 (at node 4)
Accepted flit rate average= 0.046875
	minimum = 0.022 (at node 13)
	maximum = 0.064 (at node 2)
Injected packet length average = 1
Accepted packet length average = 1
Total in-flight flits = 20 (0 measured)
latency change    = 1
throughput change = 1
Class 0:
Packet latency average = 20.0896
	minimum = 7
	maximum = 52
Network latency average = 20.0896
	minimum = 7
	maximum = 52
Slowest packet = 35314
Flit latency average = 20.0896
	minimum = 7
	maximum = 52
Slowest flit = 35314
Fragmentation average = 0
	minimum = 0
	maximum = 0
Injected packet rate average = 0.049625
	minimum = 0.036 (at node 7)
	maximum = 0.062 (at node 2)
Accepted packet rate average = 0.048125
	minimum = 0.028 (at node 13)
	maximum = 0.057 (at node 6)
Injected flit rate average = 0.049625
	minimum = 0.036 (at node 7)
	maximum = 0.062 (at node 2)
Accepted flit rate average= 0.048125
	minimum = 0.028 (at node 13)
	maximum = 0.057 (at node 6)
Injected packet length average = 1
Accepted packet length average = 1
Total in-flight flits = 24 (0 measured)
latency change    = 0.0156106
throughput change = 0.025974
Class 0:
Packet latency average = 20.3119
	minimum = 7
	maximum = 49
Network latency average = 20.3119
	minimum = 7
	maximum = 49
Slowest packet = 35701
Flit latency average = 20.3119
	minimum = 7
	maximum = 49
Slowest flit = 35701
Fragmentation average = 0
	minimum = 0
	maximum = 0
Injected packet rate average = 0.050875
	minimum = 0.034 (at node 4)
	maximum = 0.062 (at node 11)
Accepted packet rate average = 0.0525
	minimum = 0.04 (at node 2)
	maximum = 0.074 (at node 4)
Injected flit rate average = 0.050875
	minimum = 0.034 (at node 4)
	maximum = 0.062 (at node 11)
Accepted flit rate average= 0.0525
	minimum = 0.04 (at node 2)
	maximum = 0.074 (at node 4)
Injected packet length average = 1
Accepted packet length average = 1
Total in-flight flits = 11 (0 measured)
latency change    = 0.010944
throughput change = 0.0833333
Warmed up ...Time used is 1500 cycles
Class 0:
Packet latency average = 20.2473
	minimum = 7
	maximum = 61
Network latency average = 20.2473
	minimum = 7
	maximum = 61
Slowest packet = 36268
Flit latency average = 20.2715
	minimum = 7
	maximum = 61
Slowest flit = 36268
Fragmentation average = 0
	minimum = 0
	maximum = 0
Injected packet rate average = 0.0485
	minimum = 0.026 (at node 6)
	maximum = 0.064 (at node 4)
Accepted packet rate average = 0.047875
	minimum = 0.034 (at node 1)
	maximum = 0.06 (at node 3)
Injected flit rate average = 0.0485
	minimum = 0.026 (at node 6)
	maximum = 0.064 (at node 4)
Accepted flit rate average= 0.047875
	minimum = 0.034 (at node 1)
	maximum = 0.06 (at node 3)
Injected packet length average = 1
Accepted packet length average = 1
Total in-flight flits = 16 (16 measured)
latency change    = 0.0031902
throughput change = 0.0966057
Class 0:
Packet latency average = 20.5912
	minimum = 7
	maximum = 61
Network latency average = 20.5912
	minimum = 7
	maximum = 61
Slowest packet = 36268
Flit latency average = 20.598
	minimum = 7
	maximum = 61
Slowest flit = 36268
Fragmentation average = 0
	minimum = 0
	maximum = 0
Injected packet rate average = 0.051
	minimum = 0.035 (at node 6)
	maximum = 0.063 (at node 15)
Accepted packet rate average = 0.0506875
	minimum = 0.041 (at node 1)
	maximum = 0.063 (at node 3)
Injected flit rate average = 0.051
	minimum = 0.035 (at node 6)
	maximum = 0.063 (at node 15)
Accepted flit rate average= 0.0506875
	minimum = 0.041 (at node 1)
	maximum = 0.063 (at node 3)
Injected packet length average = 1
Accepted packet length average = 1
Total in-flight flits = 16 (16 measured)
latency change    = 0.0167031
throughput change = 0.0554871
Class 0:
Packet latency average = 20.7157
	minimum = 7
	maximum = 65
Network latency average = 20.7157
	minimum = 7
	maximum = 65
Slowest packet = 36956
Flit latency average = 20.719
	minimum = 7
	maximum = 65
Slowest flit = 36956
Fragmentation average = 0
	minimum = 0
	maximum = 0
Injected packet rate average = 0.0522917
	minimum = 0.0406667 (at node 6)
	maximum = 0.0626667 (at node 4)
Accepted packet rate average = 0.0520417
	minimum = 0.0413333 (at node 1)
	maximum = 0.0613333 (at node 3)
Injected flit rate average = 0.0522917
	minimum = 0.0406667 (at node 6)
	maximum = 0.0626667 (at node 4)
Accepted flit rate average= 0.0520417
	minimum = 0.0413333 (at node 1)
	maximum = 0.0613333 (at node 3)
Injected packet length average = 1
Accepted packet length average = 1
Total in-flight flits = 17 (17 measured)
latency change    = 0.0060061
throughput change = 0.0260208
Class 0:
Packet latency average = 20.6106
	minimum = 7
[...]
Slowest flit = 124989
Fragmentation average = 0
	minimum = 0
	maximum = 0
Injected packet rate average = 0.0495208
	minimum = 0.0446667 (at node 14)
	maximum = 0.0583333 (at node 3)
Accepted packet rate average = 0.0494792
	minimum = 0.0413333 (at node 1)
	maximum = 0.057 (at node 7)
Injected flit rate average = 0.0495208
	minimum = 0.0446667 (at node 14)
	maximum = 0.0583333 (at node 3)
Accepted flit rate average= 0.0494792
	minimum = 0.0413333 (at node 1)
	maximum = 0.057 (at node 7)
Injected packet length average = 1
Accepted packet length average = 1
Total in-flight flits = 14 (14 measured)
latency change    = 0.00269917
throughput change = 0.00968421
Draining all recorded packets ...
Draining remaining packets ...
Time taken is 4550 cycles
Class 0:
Packet latency average = 21.0331
	minimum = 7
	maximum = 48
Network latency average = 21.0331
	minimum = 7
	maximum = 48
Slowest packet = 126450
Flit latency average = 21.0331
	minimum = 7
	maximum = 48
Slowest flit = 126450
Fragmentation average = 0
	minimum = 0
	maximum = 0
Injected packet rate average = 0.0515
	minimum = 0.038 (at node 1)
	maximum = 0.068 (at node 11)
Accepted packet rate average = 0.049125
	minimum = 0.034 (at node 0)
	maximum = 0.074 (at node 5)
Injected flit rate average = 0.0515
	minimum = 0.038 (at node 1)
	maximum = 0.068 (at node 11)
Accepted flit rate average= 0.049125
	minimum = 0.034 (at node 0)
	maximum = 0.074 (at node 5)
Injected packet length average = 1
Accepted packet length average = 1
Total in-flight flits = 19 (0 measured)
latency change    = 1
throughput change = 1
Class 0:
Packet latency average = 20.4826
	minimum = 7
	maximum = 57
Network latency average = 20.4826
	minimum = 7
	maximum = 57
Slowest packet = 126851
Flit latency average = 20.4826
	minimum = 7
	maximum = 57
Slowest flit = 126851
Fragmentation average = 0
	minimum = 0
	maximum = 0
Injected packet rate average = 0.04975
	minimum = 0.041 (at node 1)
	maximum = 0.059 (at node 3)
Accepted packet rate average = 0.0484375
	minimum = 0.036 (at node 0)
	maximum = 0.061 (at node 5)
Injected flit rate average = 0.04975
	minimum = 0.041 (at node 1)
	maximum = 0.059 (at node 3)
Accepted flit rate average= 0.0484375
	minimum = 0.036 (at node 0)
	maximum = 0.061 (at node 5)
Injected packet length average = 1
Accepted packet length average = 1
Total in-flight flits = 21 (0 measured)
latency change    = 0.0268764
throughput change = 0.0141935
Class 0:
Packet latency average = 20.5564
	minimum = 7
	maximum = 59
Network latency average = 20.5564
	minimum = 7
	maximum = 59
Slowest packet = 127324
Flit latency average = 20.5564
	minimum = 7
	maximum = 59
Slowest flit = 127324
Fragmentation average = 0
	minimum = 0
	maximum = 0
Injected packet rate average = 0.046
	minimum = 0.038 (at node 0)
	maximum = 0.056 (at node 9)
Accepted packet rate average = 0.047625
	minimum = 0.024 (at node 14)
	maximum = 0.066 (at node 7)
Injected flit rate average = 0.046
	minimum = 0.038 (at node 0)
	maximum = 0.056 (at node 9)
Accepted flit rate average= 0.047625
	minimum = 0.024 (at node 14)
	maximum = 0.066 (at node 7)
Injected packet length average = 1
Accepted packet length average = 1
Total in-flight flits = 8 (0 measured)
latency change    = 0.00359254
throughput change = 0.0170604
Warmed up ...Time used is 1500 cycles
Class 0:
Packet latency average = 20.799
	minimum = 7
	maximum = 56
Network latency average = 20.799
	minimum = 7
	maximum = 56
Slowest packet = 127817
Flit latency average = 20.7734
	minimum = 7
	maximum = 56
Slowest flit = 127817
Fragmentation average = 0
	minimum = 0
	maximum = 0
Injected packet rate average = 0.051625
	minimum = 0.03 (at node 4)
	maximum = 0.066 (at node 9)
Accepted packet rate average = 0.05075
	minimum = 0.04 (at node 3)
	maximum = 0.068 (at node 6)
Injected flit rate average = 0.051625
	minimum = 0.03 (at node 4)
	maximum = 0.066 (at node 9)
Accepted flit rate average= 0.05075
	minimum = 0.04 (at node 3)
	maximum = 0.068 (at node 6)
Injected packet length average = 1
Accepted packet length average = 1
Total in-flight flits = 15 (15 measured)
latency change    = 0.0116623
throughput change = 0.0615764
Class 0:
Packet latency average = 21.1389
	minimum = 7
	maximum = 62
Network latency average = 21.1389
	minimum = 7
	maximum = 62
Slowest packet = 128187
Flit latency average = 21.1225
	minimum = 7
	maximum = 62
Slowest flit = 128187
Fragmentation average = 0
	minimum = 0
	maximum = 0
Injected packet rate average = 0.0506875
	minimum = 0.035 (at node 4)
	maximum = 0.067 (at node 0)
Accepted packet rate average = 0.05
	minimum = 0.038 (at node 2)
	maximum = 0.065 (at node 11)
Injected flit rate average = 0.0506875
	minimum = 0.035 (at node 4)
	maximum = 0.067 (at node 0)
Accepted flit rate average= 0.05
	minimum = 0.038 (at node 2)
	maximum = 0.065 (at node 11)
Injected packet length average = 1
Accepted packet length average = 1
Total in-flight flits = 19 (19 measured)
latency change    = 0.0160791
throughput change = 0.015
Class 0:
Packet latency average = 21.1013
	minimum = 7
	maximum = 62
Network latency average = 21.1013
	minimum = 7
	maximum = 62
Slowest packet = 128187
Flit latency average = 21.0908
	minimum = 7
	maximum = 62
Slowest flit = 128187
Fragmentation average = 0
	minimum = 0
	maximum = 0
Injected packet rate average = 0.051
	minimum = 0.0373333 (at node 4)
	maximum = 0.0673333 (at node 0)
Accepted packet rate average = 0.0505
	minimum = 0.0386667 (at node 9)
	maximum = 0.0593333 (at node 10)
Injected flit rate average = 0.051
	minimum = 0.0373333 (at node 4)
	maximum = 0.0673333 (at node 0)
Accepted flit rate average= 0.0505
	minimum = 0.0386667 (at node 9)
	maximum = 0.0593333 (at node 10)
Injected packet length average = 1
Accepted packet length average = 1
Total in-flight flits = 20 (20 measured)
latency change    = 0.00177998
throughput change = 0.00990099
Class 0:
Packet latency average = 20.9943
	minimum = 7
	maximum = 62
Network latency average = 20.9943
	minimum = 7
	maximum = 62
Slowest packet = 128187
Flit latency average = 20.9869
	minimum = 7
	maximum = 62
Slowest flit = 128187
Fragmentation average = 0
	minimum = 0
	maximum = 0
Injected packet rate average = 0.05025
	minimum = 0.038 (at node 4)
	maximum = 0.063 (at node 0)
Accepted packet rate average = 0.0499687
	minimum = 0.038 (at node 9)
	maximum = 0.057 (at node 10)
Injected flit rate average = 0.05025
	minimum = 0.038 (at node 4)
	maximum = 0.063 (at node 0)
Accepted flit rate average= 0.0499687
	minimum = 0.038 (at node 9)
	maximum = 0.057 (at node 10)
Injected packet length average = 1
Accepted packet length average = 1
Total in-flight flits = 17 (17 measured)
latency change    = 0.00509593
throughput change = 0.0106316
Draining all recorded packets ...
Draining remaining packets ...
Time taken is 3561 cycles
Class 0:
Packet latency average = 20.0896
	minimum = 7
	maximum = 42
Network latency average = 20.0896
	minimum = 7
	maximum = 42
Slowest packet = 129298
Flit latency average = 20.0896
	minimum = 7
	maximum = 42
Slowest flit = 129298
Fragmentation average = 0
	minimum = 0
	maximum = 0
Injected packet rate average = 0.05225
	minimum = 0.038 (at node 10)
	maximum = 0.066 (at node 0)
Accepted packet rate average = 0.05025
	minimum = 0.032 (at node 2)
	maximum = 0.068 (at node 11)
Injected flit rate average = 0.05225
	minimum = 0.038 (at node 10)
	maximum = 0.066 (at node 0)
Accepted flit rate average= 0.05025
	minimum = 0.032 (at node 2)
	maximum = 0.068 (at node 11)
Injected packet length average = 1
Accepted packet length average = 1
Total in-flight flits = 16 (0 measured)
latency change    = 1
throughput change = 1
Class 0:
Packet latency average = 20.0791
	minimum = 7
	maximum = 53
Network latency average = 20.0791
	minimum = 7
	maximum = 53
Slowest packet = 129672
Flit latency average = 20.0791
	minimum = 7
	maximum = 53
Slowest flit = 129672
Fragmentation average = 0
	minimum = 0
	maximum = 0
Injected packet rate average = 0.0515
	minimum = 0.039 (at node 13)
	maximum = 0.06 (at node 1)
Accepted packet rate average = 0.0505625
	minimum = 0.039 (at node 2)
	maximum = 0.064 (at node 8)
Injected flit rate average = 0.0515
	minimum = 0.039 (at node 13)
	maximum = 0.06 (at node 1)
Accepted flit rate average= 0.0505625
	minimum = 0.039 (at node 2)
	maximum = 0.064 (at node 8)
Injected packet length average = 1
Accepted packet length average = 1
Total in-flight flits = 15 (0 measured)
latency change    = 0.000520054
throughput change = 0.00618047
Class 0:
Packet latency average = 21.4866
	minimum = 7
	maximum = 56
Network latency average = 21.4866
	minimum = 7
	maximum = 56
Slowest packet = 129984
Flit latency average = 21.4866
	minimum = 7
	maximum = 56
Slowest flit = 129984
Fragmentation average = 0
	minimum = 0
	maximum = 0
Injected packet rate average = 0.051625
	minimum = 0.032 (at node 0)
	maximum = 0.064 (at node 11)
Accepted packet rate average = 0.051125
	minimum = 0.032 (at node 4)
	maximum = 0.072 (at node 15)
Injected flit rate average = 0.051625
	minimum = 0.032 (at node 0)
	maximum = 0.064 (at node 11)
Accepted flit rate average= 0.051125
	minimum = 0.032 (at node 4)
	maximum = 0.072 (at node 15)
Injected packet length average = 1
Accepted packet length average = 1
Total in-flight flits = 19 (0 measured)
latency change    = 0.0655034
throughput change = 0.0110024
Warmed up ...Time used is 1500 cycles
Class 0:
Packet latency average = 20.1268
	minimum = 7
	maximum = 56
Network latency average = 20.1268
	minimum = 7
	maximum = 56
Slowest packet = 130365
Flit latency average = 20.2315
	minimum = 7
	maximum = 56
Slowest flit = 130365
Fragmentation average = 0
	minimum = 0
	maximum = 0
Injected packet rate average = 0.05475
	minimum = 0.042 (at node 13)
	maximum = 0.074 (at node 10)
Accepted packet rate average = 0.055625
	minimum = 0.038 (at node 14)
	maximum = 0.072 (at node 1)
Injected flit rate average = 0.05475
	minimum = 0.042 (at node 13)
	maximum = 0.074 (at node 10)
Accepted flit rate average= 0.055625
	minimum = 0.038 (at node 14)
	maximum = 0.072 (at node 1)
Injected packet length average = 1
Accepted packet length average = 1
Total in-flight flits = 12 (12 measured)
latency change    = 0.0675614
throughput change = 0.0808989
Class 0:
Packet latency average = 20.2994
	minimum = 7
	maximum = 56
Network latency average = 20.2994
	minimum = 7
	maximum = 56
Slowest packet = 130365
Flit latency average = 20.3519
	minimum = 7
	maximum = 56
Slowest flit = 130365
Fragmentation average = 0
	minimum = 0
	maximum = 0
Injected packet rate average = 0.0515
	minimum = 0.04 (at node 14)
	maximum = 0.068 (at node 10)
Accepted packet rate average = 0.0515
	minimum = 0.044 (at node 3)
	maximum = 0.064 (at node 9)
Injected flit rate average = 0.0515
	minimum = 0.04 (at node 14)
	maximum = 0.068 (at node 10)
Accepted flit rate average= 0.0515
	minimum = 0.044 (at node 3)
	maximum = 0.064 (at node 9)
Injected packet length average = 1
Accepted packet length average = 1
Total in-flight flits = 19 (19 measured)
latency change    = 0.00850363
throughput change = 0.0800971
Class 0:
Packet latency average = 20.3122
	minimum = 7
	maximum = 66
Network latency average = 20.3122
	minimum = 7
	maximum = 66
Slowest packet = 131134
Flit latency average = 20.3476
	minimum = 7
	maximum = 66
Slowest flit = 131134
Fragmentation average = 0
	minimum = 0
	maximum = 0
Injected packet rate average = 0.0508333
	minimum = 0.0413333 (at node 15)
	maximum = 0.0613333 (at node 10)
Accepted packet rate average = 0.0507083
	minimum = 0.0446667 (at node 12)
	maximum = 0.0566667 (at node 1)
Injected flit rate average = 0.0508333
	minimum = 0.0413333 (at node 15)
	maximum = 0.0613333 (at node 10)
Accepted flit rate average= 0.0507083
	minimum = 0.0446667 (at node 12)
	maximum = 0.0566667 (at node 1)
Injected packet length average = 1
Accepted packet length average = 1
Total in-flight flits = 22 (22 measured)
latency change    = 0.000630562
throughput change = 0.0156122
Class 0:
Packet latency average = 20.5381
	minimum = 7
	maximum = 66
Network latency average = 20.5357
	minimum = 7
	maximum = 66
Slowest packet = 131134
Flit latency average = 20.5593
	minimum = 7
	maximum = 66
Slowest flit = 131134
Fragmentation average = 0
	minimum = 0
	maximum = 0
Injected packet rate average = 0.0513438
	minimum = 0.0435 (at node 12)
	maximum = 0.0615 (at node 11)
Accepted packet rate average = 0.0514063
	minimum = 0.042 (at node 12)
	maximum = 0.058 (at node 5)
Injected flit rate average = 0.0513438
	minimum = 0.0435 (at node 12)
	maximum = 0.0615 (at node 11)
Accepted flit rate average= 0.0514063
	minimum = 0.042 (at node 12)
	maximum = 0.058 (at node 5)
Injected packet length average = 1
Accepted packet length average = 1
Total in-flight flits = 17 (17 measured)
latency change    = 0.0110012
throughput change = 0.0135765
Class 0:
Packet latency average = 20.4479
	minimum = 7
	maximum = 66
Network latency average = 20.4459
	minimum = 7
	maximum = 66
Slowest packet = 131134
Flit latency average = 20.4657
	minimum = 7
	maximum = 66
Slowest flit = 131134
Fragmentation average = 0
	minimum = 0
	maximum = 0
Injected packet rate average = 0.05125
	minimum = 0.0448 (at node 13)
	maximum = 0.06 (at node 10)
Accepted packet rate average = 0.051325
	minimum = 0.0432 (at node 12)
	maximum = 0.0556 (at node 5)
Injected flit rate average = 0.05125
	minimum = 0.0448 (at node 13)
	maximum = 0.06 (at node 10)
Accepted flit rate average= 0.051325
	minimum = 0.0432 (at node 12)
	maximum = 0.0556 (at node 5)
Injected packet length average = 1
Accepted packet length average = 1
Total in-flight flits = 16 (16 measured)
latency change    = 0.00441339
throughput change = 0.00158305
Draining all recorded packets ...
Draining remaining packets ...
Time taken is 4084 cycles
Class 0:
Packet latency average = 20.6581
	minimum = 7
	maximum = 52
Network latency average = 20.6581
	minimum = 7
	maximum = 52
Slowest packet = 132452
Flit latency average = 20.6581
	minimum = 7
	maximum = 52
Slowest flit = 132452
Fragmentation average = 0
	minimum = 0
	maximum = 0
Injected packet rate average = 0.051
	minimum = 0.034 (at node 1)
	maximum = 0.064 (at node 4)
Accepted packet rate average = 0.048625
	minimum = 0.038 (at node 15)
	maximum = 0.06 (at node 3)
Injected flit rate average = 0.051
	minimum = 0.034 (at node 1)
	maximum = 0.064 (at node 4)
Accepted flit rate average= 0.048625
	minimum = 0.038 (at node 15)
	maximum = 0.06 (at node 3)
Injected packet length average = 1
Accepted packet length average = 1
Total in-flight flits = 19 (0 measured)
latency change    = 1
throughput change = 1
Class 0:
Packet latency average = 21.0639
	minimum = 7
	maximum = 71
Network latency average = 21.0639
	minimum = 7
	maximum = 71
Slowest packet = 133086
Flit latency average = 21.0639
	minimum = 7
	maximum = 71
Slowest flit = 133086
Fragmentation average = 0
	minimum = 0
	maximum = 0
Injected packet rate average = 0.05
	minimum = 0.039 (at node 11)
	maximum = 0.061 (at node 4)
Accepted packet rate average = 0.048875
	minimum = 0.037 (at node 15)
	maximum = 0.06 (at node 8)
Injected flit rate average = 0.05
	minimum = 0.039 (at node 11)
	maximum = 0.061 (at node 4)
Accepted flit rate average= 0.048875
	minimum = 0.037 (at node 15)
	maximum = 0.06 (at node 8)
Injected packet length average = 1
Accepted packet length average = 1
Total in-flight flits = 18 (0 measured)
latency change    = 0.0192671
throughput change = 0.00511509
Class 0:
Packet latency average = 20.4538
	minimum = 7
	maximum = 58
Network latency average = 20.4538
	minimum = 7
	maximum = 58
Slowest packet = 133301
Flit latency average = 20.4538
	minimum = 7
	maximum = 58
Slowest flit = 133301
Fragmentation average = 0
	minimum = 0
	maximum = 0
Injected packet rate average = 0.04775
	minimum = 0.036 (at node 0)
	maximum = 0.06 (at node 4)
Accepted packet rate average = 0.04875
	minimum = 0.034 (at node 15)
	maximum = 0.064 (at node 3)
Injected flit rate average = 0.04775
	minimum = 0.036 (at node 0)
	maximum = 0.06 (at node 4)
Accepted flit rate average= 0.04875
	minimum = 0.034 (at node 15)
	maximum = 0.064 (at node 3)
Injected packet length average = 1
Accepted packet length average = 1
Total in-flight flits = 10 (0 measured)
latency change    = 0.0298278
throughput change = 0.0025641
Warmed up ...Time used is 1500 cycles
Class 0:
Packet latency average = 21.0576
	minimum = 7
	maximum = 51
Network latency average = 21.0576
	minimum = 7
	maximum = 51
Slowest packet = 133678
Flit latency average = 21.1735
	minimum = 7
	maximum = 51
Slowest flit = 133678
Fragmentation average = 0
	minimum = 0
	maximum = 0
Injected packet rate average = 0.049875
	minimum = 0.034 (at node 8)
	maximum = 0.068 (at node 14)
Accepted packet rate average = 0.049
	minimum = 0.032 (at node 8)
	maximum = 0.066 (at node 0)
Injected flit rate average = 0.049875
	minimum = 0.034 (at node 8)
	maximum = 0.068 (at node 14)
Accepted flit rate average= 0.049
	minimum = 0.032 (at node 8)
	maximum = 0.066 (at node 0)
Injected packet length average = 1
Accepted packet length average = 1
Total in-flight flits = 17 (17 measured)
latency change    = 0.0286712
throughput change = 0.00510204
Class 0:
Packet latency average = 20.7403
	minimum = 7
	maximum = 67
Network latency average = 20.7403
	minimum = 7
	maximum = 67
Slowest packet = 134096
Flit latency average = 20.8002
	minimum = 7
	maximum = 67
Slowest flit = 134096
Fragmentation average = 0
	minimum = 0
	maximum = 0
Injected packet rate average = 0.051
	minimum = 0.042 (at node 9)
	maximum = 0.061 (at node 15)
Accepted packet rate average = 0.0506875
	minimum = 0.04 (at node 11)
	maximum = 0.07 (at node 10)
Injected flit rate average = 0.051
	minimum = 0.042 (at node 9)
	maximum = 0.061 (at node 15)
Accepted flit rate average= 0.0506875
	minimum = 0.04 (at node 11)
	maximum = 0.07 (at node 10)
Injected packet length average = 1
Accepted packet length average = 1
Total in-flight flits = 15 (15 measured)
latency change    = 0.0152971
throughput change = 0.0332922
Class 0:
Packet latency average = 20.722
	minimum = 7
	maximum = 67
Network latency average = 20.722
	minimum = 7
	maximum = 67
Slowest packet = 134096
Flit latency average = 20.7618
	minimum = 7
	maximum = 67
Slowest flit = 134096
Fragmentation average = 0
	minimum = 0
	maximum = 0
Injected packet rate average = 0.0514167
	minimum = 0.044 (at node 9)
	maximum = 0.0566667 (at node 14)
Accepted packet rate average = 0.0510833
	minimum = 0.0386667 (at node 11)
	maximum = 0.0693333 (at node 10)
Injected flit rate average = 0.0514167
	minimum = 0.044 (at node 9)
	maximum = 0.0566667 (at node 14)
Accepted flit rate average= 0.0510833
	minimum = 0.0386667 (at node 11)
	maximum = 0.0693333 (at node 10)
Injected packet length average = 1
Accepted packet length average = 1
Total in-flight flits = 18 (18 measured)
latency change    = 0.0008824
throughput change = 0.00774878
Draining all recorded packets ...
Draining remaining packets ...
Time taken is 3081 cycles
====== Overall Traffic Statistics ======
====== Traffic class 0 ======
Packet latency average = 20.7281 (50 samples)
	minimum = 7 (50 samples)
	maximum = 67.5 (50 samples)
Network latency average = 20.728 (50 samples)
	minimum = 7 (50 samples)
	maximum = 67.5 (50 samples)
Flit latency average = 20.7606 (50 samples)
	minimum = 7 (50 samples)
	maximum = 67.72 (50 samples)
Fragmentation average = 0 (50 samples)
	minimum = 0 (50 samples)
	maximum = 0 (50 samples)
Injected packet rate average = 0.0501263 (50 samples)
	minimum = 0.041792 (50 samples)
	maximum = 0.0591487 (50 samples)
Accepted packet rate average = 0.0501047 (50 samples)
	minimum = 0.0409927 (50 samples)
	maximum = 0.0595327 (50 samples)
Injected flit rate average = 0.0501263 (50 samples)
	minimum = 0.041792 (50 samples)
	maximum = 0.0591487 (50 samples)
Accepted flit rate average = 0.0501047 (50 samples)
	minimum = 0.0409927 (50 samples)
	maximum = 0.0595327 (50 samples)
Injected packet size average = 1 (50 samples)
Accepted packet size average = 1 (50 samples)
Hops average = 3.58191 (50 samples)
Total run time 2.37277
