BEGIN Configuration File: /tmp/tmp82hc16ly.cfg
topology = mesh;
k = 4;
n = 2;
routing_function = planar_adapt;
num_vcs = 4;
vc_buf_size = 4;
wait_for_tail_credit = 1;
vc_allocator = islip;
sw_allocator = islip;
alloc_iters = 1;
credit_delay = 2;
routing_delay = 1;
vc_alloc_delay = 1;
sw_alloc_delay = 1;
input_speedup = 2;
output_speedup = 1;
internal_speedup = 1.0;
traffic = uniform;
packet_size = 1;
sim_type = latency;
injection_rate = 0.05;
warmup_periods = 3;
sample_period = 500;
sim_count = 50;
seed = 0;
link_failures = 4;
fail_seed = 303;

END Configuration File: /tmp/tmp82hc16ly.cfg
failure at node 9, channel 2 (1/4)
failure at node 15, channel 3 (2/4)
failure at node 2, channel 2 (3/4)
failure at node 7, channel 3 (4/4)
Class 0:
Packet latency average = 23.0548
	minimum = 7
	maximum = 87
Network latency average = 23.0548
	minimum = 7
	maximum = 87
Slowest packet = 247
Flit latency average = 23.0548
	minimum = 7
	maximum = 87
Slowest flit = 247
Fragmentation average = 0
	minimum = 0
	maximum = 0
Injected packet rate average = 0.049625
	minimum = 0.032 (at node 8)
	maximum = 0.064 (at node 13)
Accepted packet rate average = 0.047875
	minimum = 0.024 (at node 11)
	maximum = 0.064 (at node 2)
Injected flit rate average = 0.049625
	minimum = 0.032 (at node 8)
	maximum = 0.064 (at node 13)
Accepted flit rate average= 0.047875
	minimum = 0.024 (at node 11)
	maximum = 0.064 (at node 2)
Injected packet length average = 1
Accepted packet length average = 1
Total in-flight flits = 14 (0 measured)
latency change    = 1
throughput change = 1
Class 0:
Packet latency average = 23.4987
	minimum = 7
	maximum = 87
Network latency average = 23.4987
	minimum = 7
	maximum = 87
Slowest packet = 247
Flit latency average = 23.4987
	minimum = 7
	maximum = 87
Slowest flit = 247
Fragmentation average = 0
	minimum = 0
	maximum = 0
Injected packet rate average = 0.048875
	minimum = 0.041 (at node 5)
	maximum = 0.054 (at node 1)
Accepted packet rate average = 0.048
	minimum = 0.037 (at node 11)
	maximum = 0.054 (at node 0)
Injected flit rate average = 0.048875
	minimum = 0.041 (at node 5)
	maximum = 0.054 (at node 1)
Accepted flit rate average= 0.048
	minimum = 0.037 (at node 11)
	maximum = 0.054 (at node 0)
Injected packet length average = 1
Accepted packet length average = 1
Total in-flight flits = 14 (0 measured)
latency change    = 0.018889
throughput change = 0.00260417
Class 0:
Packet latency average = 24.8308
	minimum = 7
	maximum = 125
Network latency average = 24.8308
	minimum = 7
	maximum = 125
Slowest packet = 1024
Flit latency average = 24.8308
	minimum = 7
	maximum = 125
Slowest flit = 1024
Fragmentation average = 0
	minimum = 0
	maximum = 0
Injected packet rate average = 0.05025
	minimum = 0.032 (at node 11)
	maximum = 0.064 (at node 12)
Accepted packet rate average = 0.04875
	minimum = 0.032 (at node 0)
	maximum = 0.062 (at node 2)
Injected flit rate average = 0.05025
	minimum = 0.032 (at node 11)
	maximum = 0.064 (at node 12)
Accepted flit rate average= 0.04875
	minimum = 0.032 (at node 0)
	maximum = 0.062 (at node 2)
Injected packet length average = 1
Accepted packet length average = 1
Total in-flight flits = 26 (0 measured)
latency change    = 0.053646
throughput change = 0.0153846
Warmed up ...Time used is 1500 cycles
Class 0:
Packet latency average = 22.7682
	minimum = 7
	maximum = 86
Network latency average = 22.7682
	minimum = 7
	maximum = 86
Slowest packet = 1495
Flit latency average = 23.1159
	minimum = 7
	maximum = 86
Slowest flit = 1495
Fragmentation average = 0
	minimum = 0
	maximum = 0
Injected packet rate average = 0.0485
	minimum = 0.036 (at node 9)
	maximum = 0.066 (at node 13)
Accepted packet rate average = 0.049625
	minimum = 0.03 (at node 2)
	maximum = 0.07 (at node 11)
Injected flit rate average = 0.0485
	minimum = 0.036 (at node 9)
	maximum = 0.066 (at node 13)
Accepted flit rate average= 0.049625
	minimum = 0.03 (at node 2)
	maximum = 0.07 (at node 11)
Injected packet length average = 1
Accepted packet length average = 1
Total in-flight flits = 17 (17 measured)
latency change    = 0.0905902
throughput change = 0.0176322
Class 0:
Packet latency average = 23.0846
	minimum = 7
	maximum = 101
Network latency average = 23.0846
	minimum = 7
	maximum = 101
Slowest packet = 1865
Flit latency average = 23.2433
	minimum = 7
	maximum = 101
Slowest flit = 1865
Fragmentation average = 0
	minimum = 0
	maximum = 0
Injected packet rate average = 0.0505625
	minimum = 0.04 (at node 9)
	maximum = 0.064 (at node 13)
Accepted packet rate average = 0.051125
	minimum = 0.036 (at node 2)
	maximum = 0.064 (at node 8)
Injected flit rate average = 0.0505625
	minimum = 0.04 (at node 9)
	maximum = 0.064 (at node 13)
Accepted flit rate average= 0.051125
	minimum = 0.036 (at node 2)
	maximum = 0.064 (at node 8)
Injected packet length average = 1
Accepted packet length average = 1
Total in-flight flits = 17 (17 measured)
latency change    = 0.0137062
throughput change = 0.0293399
Class 0:
Packet latency average = 23.3846
	minimum = 7
	maximum = 101
Network latency average = 23.3846
	minimum = 7
	maximum = 101
Slowest packet = 1865
Flit latency average = 23.4848
	minimum = 7
	maximum = 101
Slowest flit = 1865
Fragmentation average = 0
	minimum = 0
	maximum = 0
Injected packet rate average = 0.0507083
	minimum = 0.044 (at node 9)
	maximum = 0.0566667 (at node 11)
Accepted packet rate average = 0.0507083
	minimum = 0.04 (at node 4)
	maximum = 0.0593333 (at node 11)
Injected flit rate average = 0.0507083
	minimum = 0.044 (at node 9)
	maximum = 0.0566667 (at node 11)
Accepted flit rate average= 0.0507083
	minimum = 0.04 (at node 4)
	maximum = 0.0593333 (at node 11)
Injected packet length average = 1
Accepted packet length average = 1
Total in-flight flits = 26 (26 measured)
latency change    = 0.0128271
throughput change = 0.00821693
Class 0:
Packet latency average = 23.6357
	minimum = 7
	maximum = 102
Network latency average = 23.6357
	minimum = 7
	maximum = 102
Slowest packet = 2675
Flit latency average = 23.707
	minimum = 7
	maximum = 102
Slowest flit = 2675
Fragmentation average = 0
	minimum = 0
	maximum = 0
Injected packet rate average = 0.0504062
	minimum = 0.0465 (at node 0)
	maximum = 0.055 (at node 15)
Accepted packet rate average = 0.0506562
	minimum = 0.0395 (at node 4)
	maximum = 0.06 (at node 11)
Injected flit rate average = 0.0504062
	minimum = 0.0465 (at node 0)
	maximum = 0.055 (at node 15)
Accepted flit rate average= 0.0506562
	minimum = 0.0395 (at node 4)
	maximum = 0.06 (at node 11)
Injected packet length average = 1
Accepted packet length average = 1
Total in-flight flits = 18 (18 measured)
latency change    = 0.0106274
throughput change = 0.00102817
Draining all recorded packets ...
Draining remaining packets ...
Time taken is 3633 cycles
Class 0:
Packet latency average = 23.2075
	minimum = 7
	maximum = 109
Network latency average = 23.2075
	minimum = 7
	maximum = 109
Slowest packet = 3049
Flit latency average = 23.2075
	minimum = 7
	maximum = 109
Slowest flit = 3049
Fragmentation average = 0
	minimum = 0
	maximum = 0
Injected packet rate average = 0.045625
	minimum = 0.028 (at node 0)
	maximum = 0.064 (at node 9)
Accepted packet rate average = 0.043375
	minimum = 0.032 (at node 10)
	maximum = 0.056 (at node 6)
Injected flit rate average = 0.045625
	minimum = 0.028 (at node 0)
	maximum = 0.064 (at node 9)
Accepted flit rate average= 0.043375
	minimum = 0.032 (at node 10)
	maximum = 0.056 (at node 6)
Injected packet length average = 1
Accepted packet length average = 1
Total in-flight flits = 18 (0 measured)
latency change    = 1
throughput change = 1
Class 0:
Packet latency average = 23.4119
	minimum = 7
	maximum = 109
Network latency average = 23.4119
	minimum = 7
	maximum = 109
Slowest packet = 3049
Flit latency average = 23.4119
	minimum = 7
	maximum = 109
Slowest flit = 3049
Fragmentation average = 0
	minimum = 0
	maximum = 0
Injected packet rate average = 0.0456875
	minimum = 0.037 (at node 6)
	maximum = 0.057 (at node 9)
Accepted packet rate average = 0.0450625
	minimum = 0.036 (at node 13)
	maximum = 0.059 (at node 6)
Injected flit rate average = 0.0456875
	minimum = 0.037 (at node 6)
	maximum = 0.057 (at node 9)
Accepted flit rate average= 0.0450625
	minimum = 0.036 (at node 13)
	maximum = 0.059 (at node 6)
Injected packet length average = 1
Accepted packet length average = 1
Total in-flight flits = 10 (0 measured)
latency change    = 0.00873209
throughput change = 0.037448
Class 0:
Packet latency average = 24.1244
	minimum = 7
	maximum = 105
Network latency average = 24.1244
	minimum = 7
	maximum = 105
Slowest packet = 3678
Flit latency average = 24.1244
	minimum = 7
	maximum = 105
Slowest flit = 3678
Fragmentation average = 0
	minimum = 0
	maximum = 0
Injected packet rate average = 0.05025
	minimum = 0.036 (at node 0)
	maximum = 0.066 (at node 9)
Accepted packet rate average = 0.04925
	minimum = 0.038 (at node 15)
	maximum = 0.06 (at node 3)
Injected flit rate average = 0.05025
	minimum = 0.036 (at node 0)
	maximum = 0.066 (at node 9)
Accepted flit rate average= 0.04925
	minimum = 0.038 (at node 15)
	maximum = 0.06 (at node 3)
Injected packet length average = 1
Accepted packet length average = 1
Total in-flight flits = 18 (0 measured)
latency change    = 0.0295319
throughput change = 0.0850254
Warmed up ...Time used is 1500 cycles
Class 0:
Packet latency average = 24.2466
	minimum = 7
	maximum = 94
Network latency average = 24.2466
	minimum = 7
	maximum = 94
Slowest packet = 4281
Flit latency average = 24.6527
	minimum = 7
	maximum = 94
Slowest flit = 4281
Fragmentation average = 0
	minimum = 0
	maximum = 0
Injected packet rate average = 0.04825
	minimum = 0.032 (at node 2)
	maximum = 0.07 (at node 5)
Accepted packet rate average = 0.047875
	minimum = 0.028 (at node 4)
	maximum = 0.072 (at node 7)
Injected flit rate average = 0.04825
	minimum = 0.032 (at node 2)
	maximum = 0.07 (at node 5)
Accepted flit rate average= 0.047875
	minimum = 0.028 (at node 4)
	maximum = 0.072 (at node 7)
Injected packet length average = 1
Accepted packet length average = 1
Total in-flight flits = 21 (21 measured)
latency change    = 0.00504029
throughput change = 0.0287206
Class 0:
Packet latency average = 24.2341
	minimum = 7
	maximum = 94
Network latency average = 24.2341
	minimum = 7
	maximum = 94
Slowest packet = 4281
Flit latency average = 24.4354
	minimum = 7
	maximum = 94
Slowest flit = 4281
Fragmentation average = 0
	minimum = 0
	maximum = 0
Injected packet rate average = 0.0485
	minimum = 0.035 (at node 6)
	maximum = 0.066 (at node 15)
Accepted packet rate average = 0.048375
	minimum = 0.037 (at node 4)
	maximum = 0.064 (at node 7)
Injected flit rate average = 0.0485
	minimum = 0.035 (at node 6)
	maximum = 0.066 (at node 15)
Accepted flit rate average= 0.048375
	minimum = 0.037 (at node 4)
	maximum = 0.064 (at node 7)
Injected packet length average = 1
Accepted packet length average = 1
Total in-flight flits = 20 (20 measured)
latency change    = 0.000513671
throughput change = 0.0103359
Class 0:
Packet latency average = 24.1668
	minimum = 7
	maximum = 94
Network latency average = 24.1668
	minimum = 7
	maximum = 94
Slowest packet = 4281
Flit latency average = 24.2964
	minimum = 7
	maximum = 94
Slowest flit = 4281
Fragmentation average = 0
	minimum = 0
	maximum = 0
Injected packet rate average = 0.0508333
	minimum = 0.04 (at node 10)
	maximum = 0.06 (at node 15)
Accepted packet rate average = 0.0504583
	minimum = 0.0386667 (at node 4)
	maximum = 0.0593333 (at node 14)
Injected flit rate average = 0.0508333
	minimum = 0.04 (at node 10)
	maximum = 0.06 (at node 15)
Accepted flit rate average= 0.0504583
	minimum = 0.0386667 (at node 4)
	maximum = 0.0593333 (at node 14)
Injected packet length average = 1
Accepted packet length average = 1
Total in-flight flits = 27 (27 measured)
latency change    = 0.00278566
throughput change = 0.0412882
Draining all recorded packets ...
Draining remaining packets ...
Time taken is 3110 cycles
Class 0:
Packet latency average = 23.0529
	minimum = 7
	maximum = 79
Network latency average = 23.0529
	minimum = 7
	maximum = 79
Slowest packet = 5293
Flit latency average = 23.0529
	minimum = 7
	maximum = 79
Slowest flit = 5293
Fragmentation average = 0
	minimum = 0
	maximum = 0
Injected packet rate average = 0.0465
	minimum = 0.034 (at node 12)
	maximum = 0.07 (at node 13)
Accepted packet rate average = 0.044875
	minimum = 0.032 (at node 12)
	maximum = 0.068 (at node 7)
Injected flit rate average = 0.0465
	minimum = 0.034 (at node 12)
	maximum = 0.07 (at node 13)
Accepted flit rate average= 0.044875
	minimum = 0.032 (at node 12)
	maximum = 0.068 (at node 7)
Injected packet length average = 1
Accepted packet length average = 1
Total in-flight flits = 13 (0 measured)
latency change    = 1
throughput change = 1
Class 0:
Packet latency average = 22.9631
	minimum = 7
	maximum = 84
Network latency average = 22.9631
	minimum = 7
	maximum = 84
Slowest packet = 5841
Flit latency average = 22.9631
	minimum = 7
	maximum = 84
Slowest flit = 5841
Fragmentation average = 0
	minimum = 0
	maximum = 0
Injected packet rate average = 0.05025
	minimum = 0.039 (at node 12)
	maximum = 0.064 (at node 13)
Accepted packet rate average = 0.049125
	minimum = 0.036 (at node 13)
	maximum = 0.057 (at node 9)
Injected flit rate average = 0.05025
	minimum = 0.039 (at node 12)
	maximum = 0.064 (at node 13)
Accepted flit rate average= 0.049125
	minimum = 0.036 (at node 13)
	maximum = 0.057 (at node 9)
Injected packet length average = 1
Accepted packet length average = 1
Total in-flight flits = 18 (0 measured)
latency change    = 0.00391151
throughput change = 0.086514
Class 0:
Packet latency average = 23.1067
	minimum = 7
	maximum = 78
Network latency average = 23.1067
	minimum = 7
	maximum = 78
Slowest packet = 6101
Flit latency average = 23.1067
	minimum = 7
	maximum = 78
Slowest flit = 6101
Fragmentation average = 0
	minimum = 0
	maximum = 0
Injected packet rate average = 0.046875
	minimum = 0.034 (at node 7)
	maximum = 0.06 (at node 11)
Accepted packet rate average = 0.046875
	minimum = 0.036 (at node 14)
	maximum = 0.06 (at node 8)
Injected flit rate average = 0.046875
	minimum = 0.034 (at node 7)
	maximum = 0.06 (at node 11)
Accepted flit rate average= 0.046875
	minimum = 0.036 (at node 14)
	maximum = 0.06 (at node 8)
Injected packet length average = 1
Accepted packet length average = 1
Total in-flight flits = 18 (0 measured)
latency change    = 0.00621303
throughput change = 0.048
Warmed up ...Time used is 1500 cycles
Class 0:
Packet latency average = 22.8075
	minimum = 7
	maximum = 55
Network latency average = 22.8075
	minimum = 7
	maximum = 55
Slowest packet = 6648
Flit latency average = 23.0789
	minimum = 7
	maximum = 67
Slowest flit = 6370
Fragmentation average = 0
	minimum = 0
	maximum = 0
Injected packet rate average = 0.053375
	minimum = 0.04 (at node 10)
	maximum = 0.072 (at node 1)
Accepted packet rate average = 0.05225
	minimum = 0.042 (at node 6)
	maximum = 0.07 (at node 2)
Injected flit rate average = 0.053375
	minimum = 0.04 (at node 10)
	maximum = 0.072 (at node 1)
Accepted flit rate average= 0.05225
	minimum = 0.042 (at node 6)
	maximum = 0.07 (at node 2)
Injected packet length average = 1
Accepted packet length average = 1
Total in-flight flits = 27 (27 measured)
latency change    = 0.013117
throughput change = 0.102871
Class 0:
Packet latency average = 23.7059
	minimum = 7
	maximum = 120
Network latency average = 23.7059
	minimum = 7
	maximum = 120
Slowest packet = 6881
Flit latency average = 23.8225
	minimum = 7
	maximum = 120
Slowest flit = 6881
Fragmentation average = 0
	minimum = 0
	maximum = 0
Injected packet rate average = 0.0525625
	minimum = 0.043 (at node 13)
	maximum = 0.065 (at node 6)
Accepted packet rate average = 0.052125
	minimum = 0.044 (at node 6)
	maximum = 0.064 (at node 11)
Injected flit rate average = 0.0525625
	minimum = 0.043 (at node 13)
	maximum = 0.065 (at node 6)
Accepted flit rate average= 0.052125
	minimum = 0.044 (at node 6)
	maximum = 0.064 (at node 11)
Injected packet length average = 1
Accepted packet length average = 1
Total in-flight flits = 25 (25 measured)
latency change    = 0.037897
throughput change = 0.00239808
Class 0:
Packet latency average = 23.6438
	minimum = 7
	maximum = 120
Network latency average = 23.6438
	minimum = 7
	maximum = 120
Slowest packet = 6881
Flit latency average = 23.7249
	minimum = 7
	maximum = 120
Slowest flit = 6881
Fragmentation average = 0
	minimum = 0
	maximum = 0
Injected packet rate average = 0.050625
	minimum = 0.0393333 (at node 13)
	maximum = 0.058 (at node 15)
Accepted packet rate average = 0.0505833
	minimum = 0.042 (at node 5)
	maximum = 0.0633333 (at node 11)
Injected flit rate average = 0.050625
	minimum = 0.0393333 (at node 13)
	maximum = 0.058 (at node 15)
Accepted flit rate average= 0.0505833
	minimum = 0.042 (at node 5)
	maximum = 0.0633333 (at node 11)
Injected packet length average = 1
Accepted packet length average = 1
Total in-flight flits = 19 (19 measured)
latency change    = 0.0026252
throughput change = 0.0304778
Class 0:
Packet latency average = 23.4679
	minimum = 7
	maximum = 120
Network latency average = 23.4679
	minimum = 7
	maximum = 120
Slowest packet = 6881
Flit latency average = 23.5318
	minimum = 7
	maximum = 120
Slowest flit = 6881
Fragmentation average = 0
	minimum = 0
	maximum = 0
Injected packet rate average = 0.04975
	minimum = 0.041 (at node 13)
	maximum = 0.0545 (at node 12)
Accepted packet rate average = 0.0496562
	minimum = 0.0425 (at node 5)
	maximum = 0.059 (at node 11)
Injected flit rate average = 0.04975
	minimum = 0.041 (at node 13)
	maximum = 0.0545 (at node 12)
Accepted flit rate average= 0.0496562
	minimum = 0.0425 (at node 5)
	maximum = 0.059 (at node 11)
Injected packet length average = 1
Accepted packet length average = 1
Total in-flight flits = 21 (21 measured)
latency change    = 0.00749782
throughput change = 0.01867
Draining all recorded packets ...
Draining remaining packets ...
Time taken is 3578 cycles
Class 0:
Packet latency average = 23.5646
	minimum = 7
	maximum = 100
Network latency average = 23.5646
	minimum = 7
	maximum = 100
Slowest packet = 8206
Flit latency average = 23.5646
	minimum = 7
	maximum = 100
Slowest flit = 8206
Fragmentation average = 0
	minimum = 0
	maximum = 0
Injected packet rate average = 0.049
	minimum = 0.032 (at node 1)
	maximum = 0.066 (at node 11)
Accepted packet rate average = 0.047375
	minimum = 0.024 (at node 4)
	maximum = 0.07 (at node 3)
Injected flit rate average = 0.049
	minimum = 0.032 (at node 1)
	maximum = 0.066 (at node 11)
Accepted flit rate average= 0.047375
	minimum = 0.024 (at node 4)
	maximum = 0.07 (at node 3)
Injected packet length average = 1
Accepted packet length average = 1
Total in-flight flits = 13 (0 measured)
latency change    = 1
throughput change = 1
Class 0:
Packet latency average = 23.3394
	minimum = 7
	maximum = 100
Network latency average = 23.3381
	minimum = 7
	maximum = 100
Slowest packet = 8206
Flit latency average = 23.3381
	minimum = 7
	maximum = 100
Slowest flit = 8206
Fragmentation average = 0
	minimum = 0
	maximum = 0
Injected packet rate average = 0.0489375
	minimum = 0.038 (at node 3)
	maximum = 0.057 (at node 4)
Accepted packet rate average = 0.0480625
	minimum = 0.034 (at node 10)
	maximum = 0.063 (at node 1)
Injected flit rate average = 0.0489375
	minimum = 0.038 (at node 3)
	maximum = 0.057 (at node 4)
Accepted flit rate average= 0.0480625
	minimum = 0.034 (at node 10)
	maximum = 0.063 (at node 1)
Injected packet length average = 1
Accepted packet length average = 1
Total in-flight flits = 14 (0 measured)
latency change    = 0.00965072
throughput change = 0.0143043
Class 0:
Packet latency average = 24.3017
	minimum = 7
	maximum = 95
Network latency average = 24.3017
	minimum = 7
	maximum = 95
Slowest packet = 8914
Flit latency average = 24.3017
	minimum = 7
	maximum = 95
Slowest flit = 8914
Fragmentation average = 0
	minimum = 0
	maximum = 0
Injected packet rate average = 0.05225
	minimum = 0.034 (at node 3)
	maximum = 0.076 (at node 12)
Accepted packet rate average = 0.052625
	minimum = 0.042 (at node 1)
	maximum = 0.07 (at node 0)
Injected flit rate average = 0.05225
	minimum = 0.034 (at node 3)
	maximum = 0.076 (at node 12)
Accepted flit rate average= 0.052625
	minimum = 0.042 (at node 1)
	maximum = 0.07 (at node 0)
Injected packet length average = 1
Accepted packet length average = 1
Total in-flight flits = 11 (0 measured)
latency change    = 0.0395965
throughput change = 0.0866983
Warmed up ...Time used is 1500 cycles
Class 0:
Packet latency average = 24.6838
	minimum = 7
	maximum = 82
Network latency average = 24.6838
	minimum = 7
	maximum = 82
Slowest packet = 9312
Flit latency average = 24.5975
	minimum = 7
	maximum = 82
Slowest flit = 9312
Fragmentation average = 0
	minimum = 0
	maximum = 0
Injected packet rate average = 0.05125
	minimum = 0.032 (at node 9)
	maximum = 0.068 (at node 0)
Accepted packet rate average = 0.05
	minimum = 0.032 (at node 9)
	maximum = 0.066 (at node 7)
Injected flit rate average = 0.05125
	minimum = 0.032 (at node 9)
	maximum = 0.068 (at node 0)
Accepted flit rate average= 0.05
	minimum = 0.032 (at node 9)
	maximum = 0.066 (at node 7)
Injected packet length average = 1
Accepted packet length average = 1
Total in-flight flits = 21 (21 measured)
latency change    = 0.0154815
throughput change = 0.0525
Class 0:
Packet latency average = 24.2268
	minimum = 7
	maximum = 82
Network latency average = 24.2268
	minimum = 7
	maximum = 82
Slowest packet = 9312
Flit latency average = 24.1913
	minimum = 7
	maximum = 82
Slowest flit = 9312
Fragmentation average = 0
	minimum = 0
	maximum = 0
Injected packet rate average = 0.05225
	minimum = 0.041 (at node 14)
	maximum = 0.061 (at node 0)
Accepted packet rate average = 0.0519375
	minimum = 0.041 (at node 4)
	maximum = 0.065 (at node 10)
Injected flit rate average = 0.05225
	minimum = 0.041 (at node 14)
	maximum = 0.061 (at node 0)
Accepted flit rate average= 0.0519375
	minimum = 0.041 (at node 4)
	maximum = 0.065 (at node 10)
Injected packet length average = 1
Accepted packet length average = 1
Total in-flight flits = 16 (16 measured)
latency change    = 0.0188624
throughput change = 0.0373045
Class 0:
Packet latency average = 23.849
	minimum = 7
	maximum = 101
Network latency average = 23.849
	minimum = 7
	maximum = 101
Slowest packet = 10189
Flit latency average = 23.8288
	minimum = 7
	maximum = 101
Slowest flit = 10189
Fragmentation average = 0
	minimum = 0
	maximum = 0
Injected packet rate average = 0.0524583
	minimum = 0.0433333 (at node 14)
	maximum = 0.0586667 (at node 2)
Accepted packet rate average = 0.0523333
	minimum = 0.0426667 (at node 9)
	maximum = 0.0633333 (at node 10)
Injected flit rate average = 0.0524583
	minimum = 0.0433333 (at node 14)
	maximum = 0.0586667 (at node 2)
Accepted flit rate average= 0.0523333
	minimum = 0.0426667 (at node 9)
	maximum = 0.0633333 (at node 10)
Injected packet length average = 1
Accepted packet length average = 1
Total in-flight flits = 14 (14 measured)
latency change    = 0.0158427
throughput change = 0.00756369
Class 0:
Packet latency average = 24.0949
	minimum = 7
	maximum = 101
Network latency average = 24.0949
	minimum = 7
	maximum = 101
Slowest packet = 10189
Flit latency average = 24.0784
	minimum = 7
	maximum = 101
Slowest flit = 10189
Fragmentation average = 0
	minimum = 0
	maximum = 0
Injected packet rate average = 0.0530313
	minimum = 0.043 (at node 14)
	maximum = 0.062 (at node 2)
Accepted packet rate average = 0.0530313
	minimum = 0.043 (at node 9)
	maximum = 0.062 (at node 7)
Injected flit rate average = 0.0530313
	minimum = 0.043 (at node 14)
	maximum = 0.062 (at node 2)
Accepted flit rate average= 0.0530313
	minimum = 0.043 (at node 9)
	maximum = 0.062 (at node 7)
Injected packet length average = 1
Accepted packet length average = 1
Total in-flight flits = 11 (11 measured)
latency change    = 0.0102056
throughput change = 0.0131605
Draining all recorded packets ...
Draining remaining packets ...
Time taken is 3611 cycles
Class 0:
Packet latency average = 22.7262
	minimum = 7
	maximum = 86
Network latency average = 22.7262
	minimum = 7
	maximum = 86
Slowest packet = 11063
Flit latency average = 22.7262
	minimum = 7
	maximum = 86
Slowest flit = 11063
Fragmentation average = 0
	minimum = 0
	maximum = 0
Injected packet rate average = 0.0535
	minimum = 0.032 (at node 3)
	maximum = 0.076 (at node 11)
Accepted packet rate average = 0.051125
	minimum = 0.036 (at node 6)
	maximum = 0.07 (at node 8)
Injected flit rate average = 0.0535
	minimum = 0.032 (at node 3)
	maximum = 0.076 (at node 11)
Accepted flit rate average= 0.051125
	minimum = 0.036 (at node 6)
	maximum = 0.07 (at node 8)
Injected packet length average = 1
Accepted packet length average = 1
Total in-flight flits = 19 (0 measured)
latency change    = 1
throughput change = 1
Class 0:
Packet latency average = 23.029
	minimum = 7
	maximum = 101
Network latency average = 23.029
	minimum = 7
	maximum = 101
Slowest packet = 11609
Flit latency average = 23.029
	minimum = 7
	maximum = 101
Slowest flit = 11609
Fragmentation average = 0
	minimum = 0
	maximum = 0
Injected packet rate average = 0.0508125
	minimum = 0.039 (at node 6)
	maximum = 0.065 (at node 11)
Accepted packet rate average = 0.0495625
	minimum = 0.03 (at node 4)
	maximum = 0.068 (at node 8)
Injected flit rate average = 0.0508125
	minimum = 0.039 (at node 6)
	maximum = 0.065 (at node 11)
Accepted flit rate average= 0.0495625
	minimum = 0.03 (at node 4)
	maximum = 0.068 (at node 8)
Injected packet length average = 1
Accepted packet length average = 1
Total in-flight flits = 20 (0 measured)
latency change    = 0.0131505
throughput change = 0.0315259
Class 0:
Packet latency average = 23.399
	minimum = 7
	maximum = 81
Network latency average = 23.399
	minimum = 7
	maximum = 81
Slowest packet = 11783
Flit latency average = 23.399
	minimum = 7
	maximum = 81
Slowest flit = 11783
Fragmentation average = 0
	minimum = 0
	maximum = 0
Injected packet rate average = 0.049375
	minimum = 0.032 (at node 6)
	maximum = 0.068 (at node 2)
Accepted packet rate average = 0.0495
	minimum = 0.03 (at node 8)
	maximum = 0.07 (at node 14)
Injected flit rate average = 0.049375
	minimum = 0.032 (at node 6)
	maximum = 0.068 (at node 2)
Accepted flit rate average= 0.0495
	minimum = 0.03 (at node 8)
	maximum = 0.07 (at node 14)
Injected packet length average = 1
Accepted packet length average = 1
Total in-flight flits = 19 (0 measured)
latency change    = 0.0158121
throughput change = 0.00126263
Warmed up ...Time used is 1500 cycles
Class 0:
Packet latency average = 23.409
	minimum = 7
	maximum = 76
Network latency average = 23.409
	minimum = 7
	maximum = 76
Slowest packet = 12375
Flit latency average = 23.9899
	minimum = 7
	maximum = 86
Slowest flit = 12161
Fragmentation average = 0
	minimum = 0
	maximum = 0
Injected packet rate average = 0.04925
	minimum = 0.036 (at node 2)
	maximum = 0.072 (at node 15)
Accepted packet rate average = 0.04975
	minimum = 0.036 (at node 12)
	maximum = 0.07 (at node 9)
Injected flit rate average = 0.04925
	minimum = 0.036 (at node 2)
	maximum = 0.072 (at node 15)
Accepted flit rate average= 0.04975
	minimum = 0.036 (at node 12)
	maximum = 0.07 (at node 9)
Injected packet length average = 1
Accepted packet length average = 1
Total in-flight flits = 15 (15 measured)
latency change    = 0.000426378
throughput change = 0.00502513
Class 0:
Packet latency average = 22.825
	minimum = 7
	maximum = 86
Network latency average = 22.825
	minimum = 7
	maximum = 86
Slowest packet = 12685
Flit latency average = 23.1272
	minimum = 7
	maximum = 86
Slowest flit = 12161
Fragmentation average = 0
	minimum = 0
	maximum = 0
Injected packet rate average = 0.0504375
	minimum = 0.037 (at node 0)
	maximum = 0.064 (at node 15)
Accepted packet rate average = 0.050125
	minimum = 0.041 (at node 11)
	maximum = 0.064 (at node 9)
Injected flit rate average = 0.0504375
	minimum = 0.037 (at node 0)
	maximum = 0.064 (at node 15)
Accepted flit rate average= 0.050125
	minimum = 0.041 (at node 11)
	maximum = 0.064 (at node 9)
Injected packet length average = 1
Accepted packet length average = 1
Total in-flight flits = 24 (24 measured)
latency change    = 0.0255833
throughput change = 0.0074813
Class 0:
Packet latency average = 22.6317
	minimum = 7
	maximum = 86
Network latency average = 22.6317
	minimum = 7
	maximum = 86
Slowest packet = 12685
Flit latency average = 22.8434
	minimum = 7
	maximum = 86
Slowest flit = 12161
Fragmentation average = 0
	minimum = 0
	maximum = 0
Injected packet rate average = 0.0487083
	minimum = 0.036 (at node 7)
	maximum = 0.0606667 (at node 15)
Accepted packet rate average = 0.0484167
	minimum = 0.04 (at node 11)
	maximum = 0.058 (at node 0)
Injected flit rate average = 0.0487083
	minimum = 0.036 (at node 7)
	maximum = 0.0606667 (at node 15)
Accepted flit rate average= 0.0484167
	minimum = 0.04 (at node 11)
	maximum = 0.058 (at node 0)
Injected packet length average = 1
Accepted packet length average = 1
Total in-flight flits = 26 (26 measured)
latency change    = 0.00854382
throughput change = 0.035284
Draining all recorded packets ...
Draining remaining packets ...
Time taken is 3200 cycles
Class 0:
Packet latency average = 22.688
	minimum = 7
	maximum = 78
Network latency average = 22.688
	minimum = 7
	maximum = 78
Slowest packet = 13731
Flit latency average = 22.688
	minimum = 7
	maximum = 78
Slowest flit = 13731
Fragmentation average = 0
	minimum = 0
	maximum = 0
Injected packet rate average = 0.04725
	minimum = 0.032 (at node 6)
	maximum = 0.074 (at node 12)
Accepted packet rate average = 0.044875
	minimum = 0.028 (at node 9)
	maximum = 0.064 (at node 15)
Injected flit rate average = 0.04725
	minimum = 0.032 (at node 6)
	maximum = 0.074 (at node 12)
Accepted flit rate average= 0.044875
	minimum = 0.028 (at node 9)
	maximum = 0.064 (at node 15)
Injected packet length average = 1
Accepted packet length average = 1
Total in-flight flits = 19 (0 measured)
latency change    = 1
throughput change = 1
Class 0:
Packet latency average = 23.6019
	minimum = 7
	maximum = 78
Network latency average = 23.6019
	minimum = 7
	maximum = 78
Slowest packet = 13731
Flit latency average = 23.6019
	minimum = 7
	maximum = 78
Slowest flit = 13731
Fragmentation average = 0
	minimum = 0
	maximum = 0
Injected packet rate average = 0.046375
	minimum = 0.033 (at node 6)
	maximum = 0.062 (at node 12)
Accepted packet rate average = 0.045375
	minimum = 0.03 (at node 9)
	maximum = 0.06 (at node 15)
Injected flit rate average = 0.046375
	minimum = 0.033 (at node 6)
	maximum = 0.062 (at node 12)
Accepted flit rate average= 0.045375
	minimum = 0.03 (at node 9)
	maximum = 0.06 (at node 15)
Injected packet length average = 1
Accepted packet length average = 1
Total in-flight flits = 16 (0 measured)
latency change    = 0.0387217
throughput change = 0.0110193
Class 0:
Packet latency average = 23.5928
	minimum = 7
	maximum = 106
Network latency average = 23.5928
	minimum = 7
	maximum = 106
Slowest packet = 14512
Flit latency average = 23.5928
	minimum = 7
	maximum = 106
Slowest flit = 14512
Fragmentation average = 0
	minimum = 0
	maximum = 0
Injected packet rate average = 0.05575
	minimum = 0.044 (at node 0)
	maximum = 0.074 (at node 14)
Accepted packet rate average = 0.055875
	minimum = 0.042 (at node 12)
	maximum = 0.082 (at node 13)
Injected flit rate average = 0.05575
	minimum = 0.044 (at node 0)
	maximum = 0.074 (at node 14)
Accepted flit rate average= 0.055875
	minimum = 0.042 (at node 12)
	maximum = 0.082 (at node 13)
Injected packet length average = 1
Accepted packet length average = 1
Total in-flight flits = 15 (0 measured)
latency change    = 0.000385168
throughput change = 0.187919
Warmed up ...Time used is 1500 cycles
Class 0:
Packet latency average = 23.3393
	minimum = 7
	maximum = 84
Network latency average = 23.3393
	minimum = 7
	maximum = 84
Slowest packet = 14804
Flit latency average = 23.742
	minimum = 7
	maximum = 84
Slowest flit = 14804
Fragmentation average = 0
	minimum = 0
	maximum = 0
Injected packet rate average = 0.051375
	minimum = 0.032 (at node 3)
	maximum = 0.074 (at node 7)
Accepted packet rate average = 0.050875
	minimum = 0.028 (at node 10)
	maximum = 0.07 (at node 9)
Injected flit rate average = 0.051375
	minimum = 0.032 (at node 3)
	maximum = 0.074 (at node 7)
Accepted flit rate average= 0.050875
	minimum = 0.028 (at node 10)
	maximum = 0.07 (at node 9)
Injected packet length average = 1
Accepted packet length average = 1
Total in-flight flits = 19 (19 measured)
latency change    = 0.0108639
throughput change = 0.0982801
Class 0:
Packet latency average = 24.2462
	minimum = 7
	maximum = 85
Network latency average = 24.2462
	minimum = 7
	maximum = 85
Slowest packet = 15110
Flit latency average = 24.4307
	minimum = 7
	maximum = 85
Slowest flit = 15110
Fragmentation average = 0
	minimum = 0
	maximum = 0
Injected packet rate average = 0.0513125
	minimum = 0.04 (at node 15)
	maximum = 0.065 (at node 4)
Accepted packet rate average = 0.0509375
	minimum = 0.037 (at node 6)
	maximum = 0.062 (at node 9)
Injected flit rate average = 0.0513125
	minimum = 0.04 (at node 15)
	maximum = 0.065 (at node 4)
Accepted flit rate average= 0.0509375
	minimum = 0.037 (at node 6)
	maximum = 0.062 (at node 9)
Injected packet length average = 1
Accepted packet length average = 1
Total in-flight flits = 21 (21 measured)
latency change    = 0.0374064
throughput change = 0.00122699
Class 0:
Packet latency average = 23.8436
	minimum = 7
	maximum = 102
Network latency average = 23.8436
	minimum = 7
	maximum = 102
Slowest packet = 15793
Flit latency average = 23.9707
	minimum = 7
	maximum = 102
Slowest flit = 15793
Fragmentation average = 0
	minimum = 0
	maximum = 0
Injected packet rate average = 0.0512917
	minimum = 0.044 (at node 5)
	maximum = 0.064 (at node 4)
Accepted packet rate average = 0.05125
	minimum = 0.0426667 (at node 6)
	maximum = 0.0586667 (at node 5)
Injected flit rate average = 0.0512917
	minimum = 0.044 (at node 5)
	maximum = 0.064 (at node 4)
Accepted flit rate average= 0.05125
	minimum = 0.0426667 (at node 6)
	maximum = 0.0586667 (at node 5)
Injected packet length average = 1
Accepted packet length average = 1
Total in-flight flits = 16 (16 measured)
latency change    = 0.0168862
throughput change = 0.00609756
Class 0:
Packet latency average = 23.7631
	minimum = 7
	maximum = 102
Network latency average = 23.7631
	minimum = 7
	maximum = 102
Slowest packet = 15793
Flit latency average = 23.8607
	minimum = 7
	maximum = 102
Slowest flit = 15793
Fragmentation average = 0
	minimum = 0
	maximum = 0
Injected packet rate average = 0.0510625
	minimum = 0.0395 (at node 15)
	maximum = 0.0625 (at node 7)
Accepted packet rate average = 0.0504687
	minimum = 0.041 (at node 10)
	maximum = 0.057 (at node 5)
Injected flit rate average = 0.0510625
	minimum = 0.0395 (at node 15)
	maximum = 0.0625 (at node 7)
Accepted flit rate average= 0.0504687
	minimum = 0.041 (at node 10)
	maximum = 0.057 (at node 5)
Injected packet length average = 1
Accepted packet length average = 1
Total in-flight flits = 34 (34 measured)
latency change    = 0.00338745
throughput change = 0.0154799
Draining all recorded packets ...
Draining remaining packets ...
Time taken is 3618 cycles
Class 0:
Packet latency average = 23.1432
	minimum = 7
	maximum = 93
Network latency average = 23.1432
	minimum = 7
	maximum = 93
Slowest packet = 16610
Flit latency average = 23.1432
	minimum = 7
	maximum = 93
Slowest flit = 16610
Fragmentation average = 0
	minimum = 0
	maximum = 0
Injected packet rate average = 0.053125
	minimum = 0.026 (at node 5)
	maximum = 0.07 (at node 14)
Accepted packet rate average = 0.050625
	minimum = 0.03 (at node 4)
	maximum = 0.066 (at node 12)
Injected flit rate average = 0.053125
	minimum = 0.026 (at node 5)
	maximum = 0.07 (at node 14)
Accepted flit rate average= 0.050625
	minimum = 0.03 (at node 4)
	maximum = 0.066 (at node 12)
Injected packet length average = 1
Accepted packet length average = 1
Total in-flight flits = 20 (0 measured)
latency change    = 1
throughput change = 1
Class 0:
Packet latency average = 23.4981
	minimum = 7
	maximum = 93
Network latency average = 23.4981
	minimum = 7
	maximum = 93
Slowest packet = 16610
Flit latency average = 23.4981
	minimum = 7
	maximum = 93
Slowest flit = 16610
Fragmentation average = 0
	minimum = 0
	maximum = 0
Injected packet rate average = 0.051125
	minimum = 0.038 (at node 5)
	maximum = 0.062 (at node 9)
Accepted packet rate average = 0.0494375
	minimum = 0.04 (at node 4)
	maximum = 0.06 (at node 12)
Injected flit rate average = 0.051125
	minimum = 0.038 (at node 5)
	maximum = 0.062 (at node 9)
Accepted flit rate average= 0.0494375
	minimum = 0.04 (at node 4)
	maximum = 0.06 (at node 12)
Injected packet length average = 1
Accepted packet length average = 1
Total in-flight flits = 27 (0 measured)
latency change    = 0.0151031
throughput change = 0.0240202
Class 0:
Packet latency average = 24.0788
	minimum = 7
	maximum = 95
Network latency average = 24.0788
	minimum = 7
	maximum = 95
Slowest packet = 17120
Flit latency average = 24.0788
	minimum = 7
	maximum = 95
Slowest flit = 17120
Fragmentation average = 0
	minimum = 0
	maximum = 0
Injected packet rate average = 0.05425
	minimum = 0.03 (at node 11)
	maximum = 0.072 (at node 13)
Accepted packet rate average = 0.0555
	minimum = 0.038 (at node 15)
	maximum = 0.076 (at node 6)
Injected flit rate average = 0.05425
	minimum = 0.03 (at node 11)
	maximum = 0.072 (at node 13)
Accepted flit rate average= 0.0555
	minimum = 0.038 (at node 15)
	maximum = 0.076 (at node 6)
Injected packet length average = 1
Accepted packet length average = 1
Total in-flight flits = 17 (0 measured)
latency change    = 0.0241177
throughput change = 0.109234
Warmed up ...Time used is 1500 cycles
Class 0:
Packet latency average = 23.7647
	minimum = 7
	maximum = 78
Network latency average = 23.7647
	minimum = 7
	maximum = 78
Slowest packet = 17858
Flit latency average = 23.9144
	minimum = 7
	maximum = 78
Slowest flit = 17858
Fragmentation average = 0
	minimum = 0
	maximum = 0
Injected packet rate average = 0.047125
	minimum = 0.026 (at node 1)
	maximum = 0.062 (at node 0)
Accepted packet rate average = 0.04675
	minimum = 0.034 (at node 8)
	maximum = 0.062 (at node 7)
Injected flit rate average = 0.047125
	minimum = 0.026 (at node 1)
	maximum = 0.062 (at node 0)
Accepted flit rate average= 0.04675
	minimum = 0.034 (at node 8)
	maximum = 0.062 (at node 7)
Injected packet length average = 1
Accepted packet length average = 1
Total in-flight flits = 20 (20 measured)
latency change    = 0.013218
throughput change = 0.187166
Class 0:
Packet latency average = 24.5533
	minimum = 7
	maximum = 100
Network latency average = 24.5533
	minimum = 7
	maximum = 100
Slowest packet = 18092
Flit latency average = 24.6068
	minimum = 7
	maximum = 100
Slowest flit = 18092
Fragmentation average = 0
	minimum = 0
	maximum = 0
Injected packet rate average = 0.0494375
	minimum = 0.032 (at node 1)
	maximum = 0.062 (at node 0)
Accepted packet rate average = 0.04975
	minimum = 0.041 (at node 13)
	maximum = 0.062 (at node 3)
Injected flit rate average = 0.0494375
	minimum = 0.032 (at node 1)
	maximum = 0.062 (at node 0)
Accepted flit rate average= 0.04975
	minimum = 0.041 (at node 13)
	maximum = 0.062 (at node 3)
Injected packet length average = 1
Accepted packet length average = 1
Total in-flight flits = 12 (12 measured)
latency change    = 0.0321166
throughput change = 0.0603015
Class 0:
Packet latency average = 24.3085
	minimum = 7
	maximum = 100
Network latency average = 24.3085
	minimum = 7
	maximum = 100
Slowest packet = 18092
Flit latency average = 24.3484
	minimum = 7
	maximum = 100
Slowest flit = 18092
Fragmentation average = 0
	minimum = 0
	maximum = 0
Injected packet rate average = 0.0488333
	minimum = 0.0353333 (at node 1)
	maximum = 0.0586667 (at node 10)
Accepted packet rate average = 0.0487917
	minimum = 0.0406667 (at node 14)
	maximum = 0.0613333 (at node 11)
Injected flit rate average = 0.0488333
	minimum = 0.0353333 (at node 1)
	maximum = 0.0586667 (at node 10)
Accepted flit rate average= 0.0487917
	minimum = 0.0406667 (at node 14)
	maximum = 0.0613333 (at node 11)
Injected packet length average = 1
Accepted packet length average = 1
Total in-flight flits = 18 (18 measured)
latency change    = 0.0100698
throughput change = 0.0196413
Class 0:
Packet latency average = 24.3065
	minimum = 7
	maximum = 100
Network latency average = 24.3065
	minimum = 7
	maximum = 100
Slowest packet = 18092
Flit latency average = 24.3365
	minimum = 7
	maximum = 100
Slowest flit = 18092
Fragmentation average = 0
	minimum = 0
	maximum = 0
Injected packet rate average = 0.0486875
	minimum = 0.038 (at node 1)
	maximum = 0.0575 (at node 10)
Accepted packet rate average = 0.0486562
	minimum = 0.042 (at node 0)
	maximum = 0.0635 (at node 11)
Injected flit rate average = 0.0486875
	minimum = 0.038 (at node 1)
	maximum = 0.0575 (at node 10)
Accepted flit rate average= 0.0486562
	minimum = 0.042 (at node 0)
	maximum = 0.0635 (at node 11)
Injected packet length average = 1
Accepted packet length average = 1
Total in-flight flits = 18 (18 measured)
latency change    = 8.22288e-05
throughput change = 0.00278313
Class 0:
Packet latency average = 24.2903
	minimum = 7
	maximum = 100
Network latency average = 24.2903
	minimum = 7
	maximum = 100
Slowest packet = 18092
Flit latency average = 24.3141
	minimum = 7
	maximum = 100
Slowest flit = 18092
Fragmentation average = 0
	minimum = 0
	maximum = 0
Injected packet rate average = 0.049475
	minimum = 0.04 (at node 1)
	maximum = 0.0568 (at node 10)
Accepted packet rate average = 0.049425
	minimum = 0.0424 (at node 0)
	maximum = 0.058 (at node 11)
Injected flit rate average = 0.049475
	minimum = 0.04 (at node 1)
	maximum = 0.0568 (at node 10)
Accepted flit rate average= 0.049425
	minimum = 0.0424 (at node 0)
	maximum = 0.058 (at node 11)
Injected packet length average = 1
Accepted packet length average = 1
Total in-flight flits = 19 (19 measured)
latency change    = 0.000666413
throughput change = 0.0155539
Draining all recorded packets ...
Draining remaining packets ...
Time taken is 4087 cycles
Class 0:
Packet latency average = 23.2521
	minimum = 7
	maximum = 94
Network latency average = 23.2521
	minimum = 7
	maximum = 94
Slowest packet = 19676
Flit latency average = 23.2521
	minimum = 7
	maximum = 94
Slowest flit = 19676
Fragmentation average = 0
	minimum = 0
	maximum = 0
Injected packet rate average = 0.04875
	minimum = 0.03 (at node 15)
	maximum = 0.072 (at node 13)
Accepted packet rate average = 0.045625
	minimum = 0.026 (at node 2)
	maximum = 0.06 (at node 13)
Injected flit rate average = 0.04875
	minimum = 0.03 (at node 15)
	maximum = 0.072 (at node 13)
Accepted flit rate average= 0.045625
	minimum = 0.026 (at node 2)
	maximum = 0.06 (at node 13)
Injected packet length average = 1
Accepted packet length average = 1
Total in-flight flits = 25 (0 measured)
latency change    = 1
throughput change = 1
Class 0:
Packet latency average = 22.7255
	minimum = 7
	maximum = 94
Network latency average = 22.7255
	minimum = 7
	maximum = 94
Slowest packet = 19676
Flit latency average = 22.7255
	minimum = 7
	maximum = 94
Slowest flit = 19676
Fragmentation average = 0
	minimum = 0
	maximum = 0
Injected packet rate average = 0.049625
	minimum = 0.031 (at node 15)
	maximum = 0.066 (at node 13)
Accepted packet rate average = 0.0485
	minimum = 0.037 (at node 2)
	maximum = 0.061 (at node 4)
Injected flit rate average = 0.049625
	minimum = 0.031 (at node 15)
	maximum = 0.066 (at node 13)
Accepted flit rate average= 0.0485
	minimum = 0.037 (at node 2)
	maximum = 0.061 (at node 4)
Injected packet length average = 1
Accepted packet length average = 1
Total in-flight flits = 18 (0 measured)
latency change    = 0.0231695
throughput change = 0.0592784
Class 0:
Packet latency average = 22.9183
	minimum = 7
	maximum = 79
Network latency average = 22.9183
	minimum = 7
	maximum = 79
Slowest packet = 20371
Flit latency average = 22.9183
	minimum = 7
	maximum = 79
Slowest flit = 20371
Fragmentation average = 0
	minimum = 0
	maximum = 0
Injected packet rate average = 0.044875
	minimum = 0.026 (at node 2)
	maximum = 0.058 (at node 7)
Accepted packet rate average = 0.044375
	minimum = 0.022 (at node 3)
	maximum = 0.062 (at node 7)
Injected flit rate average = 0.044875
	minimum = 0.026 (at node 2)
	maximum = 0.058 (at node 7)
Accepted flit rate average= 0.044375
	minimum = 0.022 (at node 3)
	maximum = 0.062 (at node 7)
Injected packet length average = 1
Accepted packet length average = 1
Total in-flight flits = 22 (0 measured)
latency change    = 0.00841224
throughput change = 0.0929577
Warmed up ...Time used is 1500 cycles
Class 0:
Packet latency average = 23.8743
	minimum = 7
	maximum = 88
Network latency average = 23.8743
	minimum = 7
	maximum = 88
Slowest packet = 20871
Flit latency average = 24.1985
	minimum = 7
	maximum = 88
Slowest flit = 20871
Fragmentation average = 0
	minimum = 0
	maximum = 0
Injected packet rate average = 0.04775
	minimum = 0.028 (at node 6)
	maximum = 0.066 (at node 7)
Accepted packet rate average = 0.0485
	minimum = 0.03 (at node 0)
	maximum = 0.074 (at node 2)
Injected flit rate average = 0.04775
	minimum = 0.028 (at node 6)
	maximum = 0.066 (at node 7)
Accepted flit rate average= 0.0485
	minimum = 0.03 (at node 0)
	maximum = 0.074 (at node 2)
Injected packet length average = 1
Accepted packet length average = 1
Total in-flight flits = 16 (16 measured)
latency change    = 0.0400433
throughput change = 0.0850515
Class 0:
Packet latency average = 24.0266
	minimum = 7
	maximum = 93
Network latency average = 24.0266
	minimum = 7
	maximum = 93
Slowest packet = 21291
Flit latency average = 24.1845
	minimum = 7
	maximum = 93
Slowest flit = 21291
Fragmentation average = 0
	minimum = 0
	maximum = 0
Injected packet rate average = 0.0483125
	minimum = 0.04 (at node 5)
	maximum = 0.066 (at node 7)
Accepted packet rate average = 0.0484375
	minimum = 0.032 (at node 0)
	maximum = 0.062 (at node 2)
Injected flit rate average = 0.0483125
	minimum = 0.04 (at node 5)
	maximum = 0.066 (at node 7)
Accepted flit rate average= 0.0484375
	minimum = 0.032 (at node 0)
	maximum = 0.062 (at node 2)
Injected packet length average = 1
Accepted packet length average = 1
Total in-flight flits = 20 (20 measured)
latency change    = 0.00633647
throughput change = 0.00129032
Class 0:
Packet latency average = 24.1217
	minimum = 7
	maximum = 93
Network latency average = 24.1217
	minimum = 7
	maximum = 93
Slowest packet = 21291
Flit latency average = 24.2258
	minimum = 7
	maximum = 93
Slowest flit = 21291
Fragmentation average = 0
	minimum = 0
	maximum = 0
Injected packet rate average = 0.048
	minimum = 0.0386667 (at node 6)
	maximum = 0.0553333 (at node 7)
Accepted packet rate average = 0.0481667
	minimum = 0.0373333 (at node 0)
	maximum = 0.0566667 (at node 2)
Injected flit rate average = 0.048
	minimum = 0.0386667 (at node 6)
	maximum = 0.0553333 (at node 7)
Accepted flit rate average= 0.0481667
	minimum = 0.0373333 (at node 0)
	maximum = 0.0566667 (at node 2)
Injected packet length average = 1
Accepted packet length average = 1
Total in-flight flits = 18 (18 measured)
latency change    = 0.00394386
throughput change = 0.00562284
Class 0:
Packet latency average = 24.1149
	minimum = 7
	maximum = 93
Network latency average = 24.1149
	minimum = 7
	maximum = 93
Slowest packet = 21291
Flit latency average = 24.1921
	minimum = 7
	maximum = 93
Slowest flit = 21291
Fragmentation average = 0
	minimum = 0
	maximum = 0
Injected packet rate average = 0.0487812
	minimum = 0.042 (at node 6)
	maximum = 0.057 (at node 12)
Accepted packet rate average = 0.0488125
	minimum = 0.038 (at node 0)
	maximum = 0.057 (at node 3)
Injected flit rate average = 0.0487812
	minimum = 0.042 (at node 6)
	maximum = 0.057 (at node 12)
Accepted flit rate average= 0.0488125
	minimum = 0.038 (at node 0)
	maximum = 0.057 (at node 3)
Injected packet length average = 1
Accepted packet length average = 1
Total in-flight flits = 21 (21 measured)
latency change    = 0.000280244
throughput change = 0.0132309
Draining all recorded packets ...
Draining remaining packets ...
Time taken is 3612 cycles
Class 0:
Packet latency average = 22.7642
	minimum = 7
	maximum = 93
Network latency average = 22.7642
	minimum = 7
	maximum = 93
Slowest packet = 22498
Flit latency average = 22.7642
	minimum = 7
	maximum = 93
Slowest flit = 22498
Fragmentation average = 0
	minimum = 0
	maximum = 0
Injected packet rate average = 0.05125
	minimum = 0.038 (at node 2)
	maximum = 0.064 (at node 8)
Accepted packet rate average = 0.04825
	minimum = 0.03 (at node 12)
	maximum = 0.072 (at node 9)
Injected flit rate average = 0.05125
	minimum = 0.038 (at node 2)
	maximum = 0.064 (at node 8)
Accepted flit rate average= 0.04825
	minimum = 0.03 (at node 12)
	maximum = 0.072 (at node 9)
Injected packet length average = 1
Accepted packet length average = 1
Total in-flight flits = 24 (0 measured)
latency change    = 1
throughput change = 1
Class 0:
Packet latency average = 22.7746
	minimum = 7
	maximum = 93
Network latency average = 22.7746
	minimum = 7
	maximum = 93
Slowest packet = 22498
Flit latency average = 22.7746
	minimum = 7
	maximum = 93
Slowest flit = 22498
Fragmentation average = 0
	minimum = 0
	maximum = 0
Injected packet rate average = 0.049875
	minimum = 0.033 (at node 2)
	maximum = 0.064 (at node 9)
Accepted packet rate average = 0.0488125
	minimum = 0.027 (at node 12)
	maximum = 0.071 (at node 9)
Injected flit rate average = 0.049875
	minimum = 0.033 (at node 2)
	maximum = 0.064 (at node 9)
Accepted flit rate average= 0.0488125
	minimum = 0.027 (at node 12)
	maximum = 0.071 (at node 9)
Injected packet length average = 1
Accepted packet length average = 1
Total in-flight flits = 17 (0 measured)
latency change    = 0.000456612
throughput change = 0.0115237
Class 0:
Packet latency average = 23.368
	minimum = 7
	maximum = 85
Network latency average = 23.368
	minimum = 7
	maximum = 85
Slowest packet = 23247
Flit latency average = 23.368
	minimum = 7
	maximum = 85
Slowest flit = 23247
Fragmentation average = 0
	minimum = 0
	maximum = 0
Injected packet rate average = 0.048375
	minimum = 0.028 (at node 7)
	maximum = 0.068 (at node 11)
Accepted packet rate average = 0.046875
	minimum = 0.038 (at node 0)
	maximum = 0.068 (at node 7)
Injected flit rate average = 0.048375
	minimum = 0.028 (at node 7)
	maximum = 0.068 (at node 11)
Accepted flit rate average= 0.046875
	minimum = 0.038 (at node 0)
	maximum = 0.068 (at node 7)
Injected packet length average = 1
Accepted packet length average = 1
Total in-flight flits = 29 (0 measured)
latency change    = 0.0253917
throughput change = 0.0413333
Warmed up ...Time used is 1500 cycles
Class 0:
Packet latency average = 23.327
	minimum = 7
	maximum = 78
Network latency average = 23.327
	minimum = 7
	maximum = 78
Slowest packet = 23776
Flit latency average = 23.6894
	minimum = 7
	maximum = 78
Slowest flit = 23776
Fragmentation average = 0
	minimum = 0
	maximum = 0
Injected packet rate average = 0.04775
	minimum = 0.034 (at node 0)
	maximum = 0.068 (at node 4)
Accepted packet rate average = 0.0495
	minimum = 0.036 (at node 4)
	maximum = 0.074 (at node 10)
Injected flit rate average = 0.04775
	minimum = 0.034 (at node 0)
	maximum = 0.068 (at node 4)
Accepted flit rate average= 0.0495
	minimum = 0.036 (at node 4)
	maximum = 0.074 (at node 10)
Injected packet length average = 1
Accepted packet length average = 1
Total in-flight flits = 15 (15 measured)
latency change    = 0.00175867
throughput change = 0.0530303
Class 0:
Packet latency average = 24.0462
	minimum = 7
	maximum = 98
Network latency average = 24.0462
	minimum = 7
	maximum = 98
Slowest packet = 24189
Flit latency average = 24.202
	minimum = 7
	maximum = 98
Slowest flit = 24189
Fragmentation average = 0
	minimum = 0
	maximum = 0
Injected packet rate average = 0.0483125
	minimum = 0.031 (at node 9)
	maximum = 0.058 (at node 10)
Accepted packet rate average = 0.0491875
	minimum = 0.036 (at node 6)
	maximum = 0.058 (at node 8)
Injected flit rate average = 0.0483125
	minimum = 0.031 (at node 9)
	maximum = 0.058 (at node 10)
Accepted flit rate average= 0.0491875
	minimum = 0.036 (at node 6)
	maximum = 0.058 (at node 8)
Injected packet length average = 1
Accepted packet length average = 1
Total in-flight flits = 15 (15 measured)
latency change    = 0.0299091
throughput change = 0.00635324
Class 0:
Packet latency average = 24.5753
	minimum = 7
	maximum = 114
Network latency average = 24.5753
	minimum = 7
	maximum = 114
Slowest packet = 24565
Flit latency average = 24.6658
	minimum = 7
	maximum = 114
Slowest flit = 24565
Fragmentation average = 0
	minimum = 0
	maximum = 0
Injected packet rate average = 0.0491667
	minimum = 0.0346667 (at node 9)
	maximum = 0.058 (at node 14)
Accepted packet rate average = 0.049375
	minimum = 0.0353333 (at node 6)
	maximum = 0.0626667 (at node 10)
Injected flit rate average = 0.0491667
	minimum = 0.0346667 (at node 9)
	maximum = 0.058 (at node 14)
Accepted flit rate average= 0.049375
	minimum = 0.0353333 (at node 6)
	maximum = 0.0626667 (at node 10)
Injected packet length average = 1
Accepted packet length average = 1
Total in-flight flits = 24 (24 measured)
latency change    = 0.0215292
throughput change = 0.00379747
Class 0:
Packet latency average = 24.2885
	minimum = 7
	maximum = 114
Network latency average = 24.2885
	minimum = 7
	maximum = 114
Slowest packet = 24565
Flit latency average = 24.3612
	minimum = 7
	maximum = 114
Slowest flit = 24565
Fragmentation average = 0
	minimum = 0
	maximum = 0
Injected packet rate average = 0.0495312
	minimum = 0.039 (at node 9)
	maximum = 0.059 (at node 14)
Accepted packet rate average = 0.0496562
	minimum = 0.041 (at node 4)
	maximum = 0.0605 (at node 10)
Injected flit rate average = 0.0495312
	minimum = 0.039 (at node 9)
	maximum = 0.059 (at node 14)
Accepted flit rate average= 0.0496562
	minimum = 0.041 (at node 4)
	maximum = 0.0605 (at node 10)
Injected packet length average = 1
Accepted packet length average = 1
Total in-flight flits = 25 (25 measured)
latency change    = 0.011808
throughput change = 0.00566394
Draining all recorded packets ...
Draining remaining packets ...
Time taken is 3604 cycles
Class 0:
Packet latency average = 22.6468
	minimum = 7
	maximum = 86
Network latency average = 22.6468
	minimum = 7
	maximum = 86
Slowest packet = 25337
Flit latency average = 22.6468
	minimum = 7
	maximum = 86
Slowest flit = 25337
Fragmentation average = 0
	minimum = 0
	maximum = 0
Injected packet rate average = 0.053125
	minimum = 0.038 (at node 0)
	maximum = 0.078 (at node 15)
Accepted packet rate average = 0.05025
	minimum = 0.032 (at node 8)
	maximum = 0.07 (at node 10)
Injected flit rate average = 0.053125
	minimum = 0.038 (at node 0)
	maximum = 0.078 (at node 15)
Accepted flit rate average= 0.05025
	minimum = 0.032 (at node 8)
	maximum = 0.07 (at node 10)
Injected packet length average = 1
Accepted packet length average = 1
Total in-flight flits = 23 (0 measured)
latency change    = 1
throughput change = 1
Class 0:
Packet latency average = 23.4658
	minimum = 7
	maximum = 86
Network latency average = 23.4658
	minimum = 7
	maximum = 86
Slowest packet = 25337
Flit latency average = 23.4658
	minimum = 7
	maximum = 86
Slowest flit = 25337
Fragmentation average = 0
	minimum = 0
	maximum = 0
Injected packet rate average = 0.0518125
	minimum = 0.035 (at node 12)
	maximum = 0.061 (at node 15)
Accepted packet rate average = 0.0503125
	minimum = 0.04 (at node 14)
	maximum = 0.06 (at node 10)
Injected flit rate average = 0.0518125
	minimum = 0.035 (at node 12)
	maximum = 0.061 (at node 15)
Accepted flit rate average= 0.0503125
	minimum = 0.04 (at node 14)
	maximum = 0.06 (at node 10)
Injected packet length average = 1
Accepted packet length average = 1
Total in-flight flits = 24 (0 measured)
latency change    = 0.0349049
throughput change = 0.00124224
Class 0:
Packet latency average = 23.8512
	minimum = 7
	maximum = 92
Network latency average = 23.8512
	minimum = 7
	maximum = 92
Slowest packet = 25979
Flit latency average = 23.8512
	minimum = 7
	maximum = 92
Slowest flit = 25979
Fragmentation average = 0
	minimum = 0
	maximum = 0
Injected packet rate average = 0.051125
	minimum = 0.038 (at node 4)
	maximum = 0.072 (at node 2)
Accepted packet rate average = 0.05125
	minimum = 0.034 (at node 1)
	maximum = 0.072 (at node 9)
Injected flit rate average = 0.051125
	minimum = 0.038 (at node 4)
	maximum = 0.072 (at node 2)
Accepted flit rate average= 0.05125
	minimum = 0.034 (at node 1)
	maximum = 0.072 (at node 9)
Injected packet length average = 1
Accepted packet length average = 1
Total in-flight flits = 23 (0 measured)
latency change    = 0.0161577
throughput change = 0.0182927
Warmed up ...Time used is 1500 cycles
Class 0:
Packet latency average = 23.9465
	minimum = 7
	maximum = 90
Network latency average = 23.9465
	minimum = 7
	maximum = 90
Slowest packet = 26562
Flit latency average = 25.0453
	minimum = 7
	maximum = 122
Slowest flit = 26386
Fragmentation average = 0
	minimum = 0
	maximum = 0
Injected packet rate average = 0.04925
	minimum = 0.038 (at node 8)
	maximum = 0.066 (at node 14)
Accepted packet rate average = 0.049625
	minimum = 0.036 (at node 12)
	maximum = 0.068 (at node 11)
Injected flit rate average = 0.04925
	minimum = 0.038 (at node 8)
	maximum = 0.066 (at node 14)
Accepted flit rate average= 0.049625
	minimum = 0.036 (at node 12)
	maximum = 0.068 (at node 11)
Injected packet length average = 1
Accepted packet length average = 1
Total in-flight flits = 20 (20 measured)
latency change    = 0.00397989
throughput change = 0.0327456
Class 0:
Packet latency average = 24.0672
	minimum = 7
	maximum = 98
Network latency average = 24.0672
	minimum = 7
	maximum = 98
Slowest packet = 26929
Flit latency average = 24.6215
	minimum = 7
	maximum = 122
Slowest flit = 26386
Fragmentation average = 0
	minimum = 0
	maximum = 0
Injected packet rate average = 0.0486875
	minimum = 0.039 (at node 1)
	maximum = 0.059 (at node 12)
Accepted packet rate average = 0.048875
	minimum = 0.037 (at node 14)
	maximum = 0.064 (at node 5)
Injected flit rate average = 0.0486875
	minimum = 0.039 (at node 1)
	maximum = 0.059 (at node 12)
Accepted flit rate average= 0.048875
	minimum = 0.037 (at node 14)
	maximum = 0.064 (at node 5)
Injected packet length average = 1
Accepted packet length average = 1
Total in-flight flits = 20 (20 measured)
latency change    = 0.00501386
throughput change = 0.0153453
Class 0:
Packet latency average = 24.0911
	minimum = 7
	maximum = 104
Network latency average = 24.0911
	minimum = 7
	maximum = 104
Slowest packet = 27394
Flit latency average = 24.4562
	minimum = 7
	maximum = 122
Slowest flit = 26386
Fragmentation average = 0
	minimum = 0
	maximum = 0
Injected packet rate average = 0.0493333
	minimum = 0.0406667 (at node 0)
	maximum = 0.0586667 (at node 12)
Accepted packet rate average = 0.0494167
	minimum = 0.0433333 (at node 1)
	maximum = 0.0613333 (at node 5)
Injected flit rate average = 0.0493333
	minimum = 0.0406667 (at node 0)
	maximum = 0.0586667 (at node 12)
Accepted flit rate average= 0.0494167
	minimum = 0.0433333 (at node 1)
	maximum = 0.0613333 (at node 5)
Injected packet length average = 1
Accepted packet length average = 1
Total in-flight flits = 21 (21 measured)
latency change    = 0.000994138
throughput change = 0.0109612
Draining all recorded packets ...
Draining remaining packets ...
Time taken is 3132 cycles
Class 0:
Packet latency average = 23.1269
	minimum = 7
	maximum = 83
Network latency average = 23.1269
	minimum = 7
	maximum = 83
Slowest packet = 27689
Flit latency average = 23.1269
	minimum = 7
	maximum = 83
Slowest flit = 27689
Fragmentation average = 0
	minimum = 0
	maximum = 0
Injected packet rate average = 0.052125
	minimum = 0.034 (at node 3)
	maximum = 0.068 (at node 12)
Accepted packet rate average = 0.04925
	minimum = 0.036 (at node 1)
	maximum = 0.064 (at node 6)
Injected flit rate average = 0.052125
	minimum = 0.034 (at node 3)
	maximum = 0.068 (at node 12)
Accepted flit rate average= 0.04925
	minimum = 0.036 (at node 1)
	maximum = 0.064 (at node 6)
Injected packet length average = 1
Accepted packet length average = 1
Total in-flight flits = 23 (0 measured)
latency change    = 1
throughput change = 1
Class 0:
Packet latency average = 23.9627
	minimum = 7
	maximum = 126
Network latency average = 23.9627
	minimum = 7
	maximum = 126
Slowest packet = 28112
Flit latency average = 23.9627
	minimum = 7
	maximum = 126
Slowest flit = 28112
Fragmentation average = 0
	minimum = 0
	maximum = 0
Injected packet rate average = 0.0514375
	minimum = 0.038 (at node 3)
	maximum = 0.066 (at node 10)
Accepted packet rate average = 0.0503125
	minimum = 0.043 (at node 10)
	maximum = 0.063 (at node 14)
Injected flit rate average = 0.0514375
	minimum = 0.038 (at node 3)
	maximum = 0.066 (at node 10)
Accepted flit rate average= 0.0503125
	minimum = 0.043 (at node 10)
	maximum = 0.063 (at node 14)
Injected packet length average = 1
Accepted packet length average = 1
Total in-flight flits = 18 (0 measured)
latency change    = 0.0348804
throughput change = 0.021118
Class 0:
Packet latency average = 22.7157
	minimum = 7
	maximum = 90
Network latency average = 22.7157
	minimum = 7
	maximum = 90
Slowest packet = 28438
Flit latency average = 22.7157
	minimum = 7
	maximum = 90
Slowest flit = 28438
Fragmentation average = 0
	minimum = 0
	maximum = 0
Injected packet rate average = 0.050375
	minimum = 0.036 (at node 10)
	maximum = 0.064 (at node 9)
Accepted packet rate average = 0.050125
	minimum = 0.038 (at node 7)
	maximum = 0.07 (at node 13)
Injected flit rate average = 0.050375
	minimum = 0.036 (at node 10)
	maximum = 0.064 (at node 9)
Accepted flit rate average= 0.050125
	minimum = 0.038 (at node 7)
	maximum = 0.07 (at node 13)
Injected packet length average = 1
Accepted packet length average = 1
Total in-flight flits = 20 (0 measured)
latency change    = 0.0548969
throughput change = 0.00374065
Warmed up ...Time used is 1500 cycles
Class 0:
Packet latency average = 24.5306
	minimum = 7
	maximum = 117
Network latency average = 24.5306
	minimum = 7
	maximum = 117
Slowest packet = 29010
Flit latency average = 24.876
	minimum = 7
	maximum = 117
Slowest flit = 29010
Fragmentation average = 0
	minimum = 0
	maximum = 0
Injected packet rate average = 0.0445
	minimum = 0.018 (at node 10)
	maximum = 0.06 (at node 13)
Accepted packet rate average = 0.045375
	minimum = 0.03 (at node 0)
	maximum = 0.064 (at node 10)
Injected flit rate average = 0.0445
	minimum = 0.018 (at node 10)
	maximum = 0.06 (at node 13)
Accepted flit rate average= 0.045375
	minimum = 0.03 (at node 0)
	maximum = 0.064 (at node 10)
Injected packet length average = 1
Accepted packet length average = 1
Total in-flight flits = 13 (13 measured)
latency change    = 0.0739852
throughput change = 0.104683
Class 0:
Packet latency average = 24.3013
	minimum = 7
	maximum = 117
Network latency average = 24.3013
	minimum = 7
	maximum = 117
Slowest packet = 29010
Flit latency average = 24.4701
	minimum = 7
	maximum = 117
Slowest flit = 29010
Fragmentation average = 0
	minimum = 0
	maximum = 0
Injected packet rate average = 0.048125
	minimum = 0.03 (at node 10)
	maximum = 0.066 (at node 4)
Accepted packet rate average = 0.048125
	minimum = 0.04 (at node 14)
	maximum = 0.061 (at node 9)
Injected flit rate average = 0.048125
	minimum = 0.03 (at node 10)
	maximum = 0.066 (at node 4)
Accepted flit rate average= 0.048125
	minimum = 0.04 (at node 14)
	maximum = 0.061 (at node 9)
Injected packet length average = 1
Accepted packet length average = 1
Total in-flight flits = 20 (20 measured)
latency change    = 0.00943483
throughput change = 0.0571429
Class 0:
Packet latency average = 24.1977
	minimum = 7
	maximum = 117
Network latency average = 24.1977
	minimum = 7
	maximum = 117
Slowest packet = 29010
Flit latency average = 24.3117
	minimum = 7
	maximum = 117
Slowest flit = 29010
Fragmentation average = 0
	minimum = 0
	maximum = 0
Injected packet rate average = 0.0480833
	minimum = 0.0366667 (at node 10)
	maximum = 0.06 (at node 4)
Accepted packet rate average = 0.04825
	minimum = 0.042 (at node 12)
	maximum = 0.0566667 (at node 9)
Injected flit rate average = 0.0480833
	minimum = 0.0366667 (at node 10)
	maximum = 0.06 (at node 4)
Accepted flit rate average= 0.04825
	minimum = 0.042 (at node 12)
	maximum = 0.0566667 (at node 9)
Injected packet length average = 1
Accepted packet length average = 1
Total in-flight flits = 16 (16 measured)
latency change    = 0.00428214
throughput change = 0.00259067
Class 0:
Packet latency average = 24.0573
	minimum = 7
	maximum = 117
Network latency average = 24.0573
	minimum = 7
	maximum = 117
Slowest packet = 29010
Flit latency average = 24.144
	minimum = 7
	maximum = 117
Slowest flit = 29010
Fragmentation average = 0
	minimum = 0
	maximum = 0
Injected packet rate average = 0.0486875
	minimum = 0.042 (at node 10)
	maximum = 0.0565 (at node 4)
Accepted packet rate average = 0.048625
	minimum = 0.0415 (at node 1)
	maximum = 0.0555 (at node 4)
Injected flit rate average = 0.0486875
	minimum = 0.042 (at node 10)
	maximum = 0.0565 (at node 4)
Accepted flit rate average= 0.048625
	minimum = 0.0415 (at node 1)
	maximum = 0.0555 (at node 4)
Injected packet length average = 1
Accepted packet length average = 1
Total in-flight flits = 22 (22 measured)
latency change    = 0.00583705
throughput change = 0.00771208
Class 0:
Packet latency average = 24.3224
	minimum = 7
	maximum = 126
Network latency average = 24.3224
	minimum = 7
	maximum = 126
Slowest packet = 30699
Flit latency average = 24.387
	minimum = 7
	maximum = 126
Slowest flit = 30699
Fragmentation average = 0
	minimum = 0
	maximum = 0
Injected packet rate average = 0.05015
	minimum = 0.0432 (at node 6)
	maximum = 0.0576 (at node 4)
Accepted packet rate average = 0.0502
	minimum = 0.0436 (at node 1)
	maximum = 0.0548 (at node 4)
Injected flit rate average = 0.05015
	minimum = 0.0432 (at node 6)
	maximum = 0.0576 (at node 4)
Accepted flit rate average= 0.0502
	minimum = 0.0436 (at node 1)
	maximum = 0.0548 (at node 4)
Injected packet length average = 1
Accepted packet length average = 1
Total in-flight flits = 18 (18 measured)
latency change    = 0.0109012
throughput change = 0.0313745
Draining all recorded packets ...
Draining remaining packets ...
Time taken is 4062 cycles
Class 0:
Packet latency average = 20.9495
	minimum = 7
	maximum = 69
Network latency average = 20.9362
	minimum = 7
	maximum = 69
Slowest packet = 31130
Flit latency average = 20.9362
	minimum = 7
	maximum = 69
Slowest flit = 31130
Fragmentation average = 0
	minimum = 0
	maximum = 0
Injected packet rate average = 0.049125
	minimum = 0.036 (at node 13)
	maximum = 0.064 (at node 8)
Accepted packet rate average = 0.047
	minimum = 0.03 (at node 3)
	maximum = 0.064 (at node 6)
Injected flit rate average = 0.049125
	minimum = 0.036 (at node 13)
	maximum = 0.064 (at node 8)
Accepted flit rate average= 0.047
	minimum = 0.03 (at node 3)
	maximum = 0.064 (at node 6)
Injected packet length average = 1
Accepted packet length average = 1
Total in-flight flits = 17 (0 measured)
latency change    = 1
throughput change = 1
Class 0:
Packet latency average = 21.8316
	minimum = 7
	maximum = 119
Network latency average = 21.825
	minimum = 7
	maximum = 119
Slowest packet = 31275
Flit latency average = 21.825
	minimum = 7
	maximum = 119
Slowest flit = 31275
Fragmentation average = 0
	minimum = 0
	maximum = 0
Injected packet rate average = 0.0488125
	minimum = 0.033 (at node 2)
	maximum = 0.064 (at node 11)
Accepted packet rate average = 0.0475
	minimum = 0.04 (at node 3)
	maximum = 0.062 (at node 1)
Injected flit rate average = 0.0488125
	minimum = 0.033 (at node 2)
	maximum = 0.064 (at node 11)
Accepted flit rate average= 0.0475
	minimum = 0.04 (at node 3)
	maximum = 0.062 (at node 1)
Injected packet length average = 1
Accepted packet length average = 1
Total in-flight flits = 21 (0 measured)
latency change    = 0.0404053
throughput change = 0.0105263
Class 0:
Packet latency average = 24.023
	minimum = 7
	maximum = 120
Network latency average = 24.023
	minimum = 7
	maximum = 120
Slowest packet = 31741
Flit latency average = 24.023
	minimum = 7
	maximum = 120
Slowest flit = 31741
Fragmentation average = 0
	minimum = 0
	maximum = 0
Injected packet rate average = 0.04875
	minimum = 0.036 (at node 9)
	maximum = 0.09 (at node 14)
Accepted packet rate average = 0.049
	minimum = 0.028 (at node 6)
	maximum = 0.062 (at node 3)
Injected flit rate average = 0.04875
	minimum = 0.036 (at node 9)
	maximum = 0.09 (at node 14)
Accepted flit rate average= 0.049
	minimum = 0.028 (at node 6)
	maximum = 0.062 (at node 3)
Injected packet length average = 1
Accepted packet length average = 1
Total in-flight flits = 19 (0 measured)
latency change    = 0.0912202
throughput change = 0.0306122
Warmed up ...Time used is 1500 cycles
Class 0:
Packet latency average = 25.0026
	minimum = 7
	maximum = 111
Network latency average = 25.0026
	minimum = 7
	maximum = 111
Slowest packet = 32294
Flit latency average = 25.1926
	minimum = 7
	maximum = 111
Slowest flit = 32294
Fragmentation average = 0
	minimum = 0
	maximum = 0
Injected packet rate average = 0.051625
	minimum = 0.034 (at node 11)
	maximum = 0.074 (at node 2)
Accepted packet rate average = 0.050625
	minimum = 0.032 (at node 2)
	maximum = 0.068 (at node 12)
Injected flit rate average = 0.051625
	minimum = 0.034 (at node 11)
	maximum = 0.074 (at node 2)
Accepted flit rate average= 0.050625
	minimum = 0.032 (at node 2)
	maximum = 0.068 (at node 12)
Injected packet length average = 1
Accepted packet length average = 1
Total in-flight flits = 27 (27 measured)
latency change    = 0.0391812
throughput change = 0.0320988
Class 0:
Packet latency average = 24.01
	minimum = 7
	maximum = 111
Network latency average = 24.01
	minimum = 7
	maximum = 111
Slowest packet = 32294
Flit latency average = 24.127
	minimum = 7
	maximum = 111
Slowest flit = 32294
Fragmentation average = 0
	minimum = 0
	maximum = 0
Injected packet rate average = 0.05125
	minimum = 0.036 (at node 15)
	maximum = 0.065 (at node 0)
Accepted packet rate average = 0.0511875
	minimum = 0.037 (at node 13)
	maximum = 0.071 (at node 14)
Injected flit rate average = 0.05125
	minimum = 0.036 (at node 15)
	maximum = 0.065 (at node 0)
Accepted flit rate average= 0.0511875
	minimum = 0.037 (at node 13)
	maximum = 0.071 (at node 14)
Injected packet length average = 1
Accepted packet length average = 1
Total in-flight flits = 20 (20 measured)
latency change    = 0.0413407
throughput change = 0.010989
Class 0:
Packet latency average = 24.214
	minimum = 7
	maximum = 122
Network latency average = 24.214
	minimum = 7
	maximum = 122
Slowest packet = 33198
Flit latency average = 24.2893
	minimum = 7
	maximum = 122
Slowest flit = 33198
Fragmentation average = 0
	minimum = 0
	maximum = 0
Injected packet rate average = 0.05075
	minimum = 0.0366667 (at node 15)
	maximum = 0.06 (at node 0)
Accepted packet rate average = 0.0508333
	minimum = 0.044 (at node 5)
	maximum = 0.064 (at node 14)
Injected flit rate average = 0.05075
	minimum = 0.0366667 (at node 15)
	maximum = 0.06 (at node 0)
Accepted flit rate average= 0.0508333
	minimum = 0.044 (at node 5)
	maximum = 0.064 (at node 14)
Injected packet length average = 1
Accepted packet length average = 1
Total in-flight flits = 17 (17 measured)
latency change    = 0.0084244
throughput change = 0.00696721
Draining all recorded packets ...
Draining remaining packets ...
Time taken is 3070 cycles
Class 0:
Packet latency average = 23.7514
	minimum = 7
	maximum = 103
Network latency average = 23.7514
	minimum = 7
	maximum = 103
Slowest packet = 33363
Flit latency average = 23.7514
	minimum = 7
	maximum = 103
Slowest flit = 33363
Fragmentation average = 0
	minimum = 0
	maximum = 0
Injected packet rate average = 0.048875
	minimum = 0.03 (at node 11)
	maximum = 0.072 (at node 13)
Accepted packet rate average = 0.04625
	minimum = 0.022 (at node 8)
	maximum = 0.06 (at node 15)
Injected flit rate average = 0.048875
	minimum = 0.03 (at node 11)
	maximum = 0.072 (at node 13)
Accepted flit rate average= 0.04625
	minimum = 0.022 (at node 8)
	maximum = 0.06 (at node 15)
Injected packet length average = 1
Accepted packet length average = 1
Total in-flight flits = 21 (0 measured)
latency change    = 1
throughput change = 1
Class 0:
Packet latency average = 24.1756
	minimum = 7
	maximum = 103
Network latency average = 24.1756
	minimum = 7
	maximum = 103
Slowest packet = 33363
Flit latency average = 24.1756
	minimum = 7
	maximum = 103
Slowest flit = 33363
Fragmentation average = 0
	minimum = 0
	maximum = 0
Injected packet rate average = 0.0500625
	minimum = 0.037 (at node 11)
	maximum = 0.069 (at node 13)
Accepted packet rate average = 0.04875
	minimum = 0.037 (at node 8)
	maximum = 0.067 (at node 11)
Injected flit rate average = 0.0500625
	minimum = 0.037 (at node 11)
	maximum = 0.069 (at node 13)
Accepted flit rate average= 0.04875
	minimum = 0.037 (at node 8)
	maximum = 0.067 (at node 11)
Injected packet length average = 1
Accepted packet length average = 1
Total in-flight flits = 21 (0 measured)
latency change    = 0.0175503
throughput change = 0.0512821
Class 0:
Packet latency average = 24.0428
	minimum = 7
	maximum = 86
Network latency average = 24.0428
	minimum = 7
	maximum = 86
Slowest packet = 34250
Flit latency average = 24.0428
	minimum = 7
	maximum = 86
Slowest flit = 34250
Fragmentation average = 0
	minimum = 0
	maximum = 0
Injected packet rate average = 0.0525
	minimum = 0.038 (at node 12)
	maximum = 0.07 (at node 6)
Accepted packet rate average = 0.052625
	minimum = 0.04 (at node 10)
	maximum = 0.072 (at node 4)
Injected flit rate average = 0.0525
	minimum = 0.038 (at node 12)
	maximum = 0.07 (at node 6)
Accepted flit rate average= 0.052625
	minimum = 0.04 (at node 10)
	maximum = 0.072 (at node 4)
Injected packet length average = 1
Accepted packet length average = 1
Total in-flight flits = 20 (0 measured)
latency change    = 0.00552706
throughput change = 0.0736342
Warmed up ...Time used is 1500 cycles
Class 0:
Packet latency average = 22.7245
	minimum = 7
	maximum = 84
Network latency average = 22.7245
	minimum = 7
	maximum = 84
Slowest packet = 34583
Flit latency average = 23.1044
	minimum = 7
	maximum = 84
Slowest flit = 34583
Fragmentation average = 0
	minimum = 0
	maximum = 0
Injected packet rate average = 0.05125
	minimum = 0.028 (at node 7)
	maximum = 0.072 (at node 2)
Accepted packet rate average = 0.0515
	minimum = 0.028 (at node 1)
	maximum = 0.066 (at node 2)
Injected flit rate average = 0.05125
	minimum = 0.028 (at node 7)
	maximum = 0.072 (at node 2)
Accepted flit rate average= 0.0515
	minimum = 0.028 (at node 1)
	maximum = 0.066 (at node 2)
Injected packet length average = 1
Accepted packet length average = 1
Total in-flight flits = 18 (18 measured)
latency change    = 0.0580108
throughput change = 0.0218447
Class 0:
Packet latency average = 23.3552
	minimum = 7
	maximum = 93
Network latency average = 23.3552
	minimum = 7
	maximum = 93
Slowest packet = 35136
Flit latency average = 23.5327
	minimum = 7
	maximum = 93
Slowest flit = 35136
Fragmentation average = 0
	minimum = 0
	maximum = 0
Injected packet rate average = 0.050625
	minimum = 0.034 (at node 7)
	maximum = 0.066 (at node 14)
Accepted packet rate average = 0.0506875
	minimum = 0.039 (at node 13)
	maximum = 0.061 (at node 3)
Injected flit rate average = 0.050625
	minimum = 0.034 (at node 7)
	maximum = 0.066 (at node 14)
Accepted flit rate average= 0.0506875
	minimum = 0.039 (at node 13)
	maximum = 0.061 (at node 3)
Injected packet length average = 1
Accepted packet length average = 1
Total in-flight flits = 19 (19 measured)
latency change    = 0.0270071
throughput change = 0.0160296
Class 0:
Packet latency average = 23.3392
	minimum = 7
	maximum = 93
Network latency average = 23.3392
	minimum = 7
	maximum = 93
Slowest packet = 35136
Flit latency average = 23.4577
	minimum = 7
	maximum = 93
Slowest flit = 35136
Fragmentation average = 0
	minimum = 0
	maximum = 0
Injected packet rate average = 0.0507917
	minimum = 0.0373333 (at node 7)
	maximum = 0.058 (at node 14)
Accepted packet rate average = 0.0507083
	minimum = 0.0393333 (at node 13)
	maximum = 0.0586667 (at node 6)
Injected flit rate average = 0.0507917
	minimum = 0.0373333 (at node 7)
	maximum = 0.058 (at node 14)
Accepted flit rate average= 0.0507083
	minimum = 0.0393333 (at node 13)
	maximum = 0.0586667 (at node 6)
Injected packet length average = 1
Accepted packet length average = 1
Total in-flight flits = 22 (22 measured)
latency change    = 0.000688338
throughput change = 0.000410846
Class 0:
Packet latency average = 23.6369
	minimum = 7
	maximum = 93
Network latency average = 23.6369
	minimum = 7
	maximum = 93
Slowest packet = 35136
Flit latency average = 23.7227
	minimum = 7
	maximum = 93
Slowest flit = 35136
Fragmentation average = 0
	minimum = 0
	maximum = 0
Injected packet rate average = 0.050375
	minimum = 0.0385 (at node 7)
	maximum = 0.056 (at node 2)
Accepted packet rate average = 0.050375
	minimum = 0.04 (at node 13)
	maximum = 0.0585 (at node 6)
Injected flit rate average = 0.050375
	minimum = 0.0385 (at node 7)
	maximum = 0.056 (at node 2)
Accepted flit rate average= 0.050375
	minimum = 0.04 (at node 13)
	maximum = 0.0585 (at node 6)
Injected packet length average = 1
Accepted packet length average = 1
Total in-flight flits = 20 (20 measured)
latency change    = 0.012597
throughput change = 0.00661704
Draining all recorded packets ...
Draining remaining packets ...
Time taken is 3643 cycles
Class 0:
Packet latency average = 24.0252
	minimum = 7
	maximum = 102
Network latency average = 24.0252
	minimum = 7
	maximum = 102
Slowest packet = 36492
Flit latency average = 24.0252
	minimum = 7
	maximum = 102
Slowest flit = 36492
Fragmentation average = 0
	minimum = 0
	maximum = 0
Injected packet rate average = 0.053375
	minimum = 0.038 (at node 1)
	maximum = 0.07 (at node 15)
Accepted packet rate average = 0.049625
	minimum = 0.036 (at node 5)
	maximum = 0.068 (at node 13)
Injected flit rate average = 0.053375
	minimum = 0.038 (at node 1)
	maximum = 0.07 (at node 15)
Accepted flit rate average= 0.049625
	minimum = 0.036 (at node 5)
	maximum = 0.068 (at node 13)
Injected packet length average = 1
Accepted packet length average = 1
Total in-flight flits = 30 (0 measured)
latency change    = 1
throughput change = 1
Class 0:
Packet latency average = 23.9709
	minimum = 7
	maximum = 102
Network latency average = 23.9709
	minimum = 7
	maximum = 102
Slowest packet = 36492
Flit latency average = 23.9709
	minimum = 7
	maximum = 102
Slowest flit = 36492
Fragmentation average = 0
	minimum = 0
	maximum = 0
Injected packet rate average = 0.053
	minimum = 0.039 (at node 13)
	maximum = 0.07 (at node 7)
Accepted packet rate average = 0.051625
	minimum = 0.039 (at node 11)
	maximum = 0.062 (at node 0)
Injected flit rate average = 0.053
	minimum = 0.039 (at node 13)
	maximum = 0.07 (at node 7)
Accepted flit rate average= 0.051625
	minimum = 0.039 (at node 11)
	maximum = 0.062 (at node 0)
Injected packet length average = 1
Accepted packet length average = 1
Total in-flight flits = 22 (0 measured)
latency change    = 0.00226293
throughput change = 0.0387409
Class 0:
Packet latency average = 23.0746
	minimum = 7
	maximum = 82
Network latency average = 23.0746
	minimum = 7
	maximum = 82
Slowest packet = 37101
Flit latency average = 23.0746
	minimum = 7
	maximum = 82
Slowest flit = 37101
Fragmentation average = 0
	minimum = 0
	maximum = 0
Injected packet rate average = 0.049375
	minimum = 0.036 (at node 1)
	maximum = 0.068 (at node 9)
Accepted packet rate average = 0.05025
	minimum = 0.028 (at node 6)
	maximum = 0.068 (at node 10)
Injected flit rate average = 0.049375
	minimum = 0.036 (at node 1)
	maximum = 0.068 (at node 9)
Accepted flit rate average= 0.05025
	minimum = 0.028 (at node 6)
	maximum = 0.068 (at node 10)
Injected packet length average = 1
[...]
	minimum = 0
	maximum = 0
Injected packet rate average = 0.0505833
	minimum = 0.0433333 (at node 13)
	maximum = 0.0613333 (at node 10)
Accepted packet rate average = 0.0504583
	minimum = 0.044 (at node 4)
	maximum = 0.06 (at node 1)
Injected flit rate average = 0.0505833
	minimum = 0.0433333 (at node 13)
	maximum = 0.0613333 (at node 10)
Accepted flit rate average= 0.0504583
	minimum = 0.044 (at node 4)
	maximum = 0.06 (at node 1)
Injected packet length average = 1
Accepted packet length average = 1
Total in-flight flits = 15 (15 measured)
latency change    = 0.0218868
throughput change = 0.0156895
Class 0:
Packet latency average = 23.348
	minimum = 7
	maximum = 115
Network latency average = 23.348
	minimum = 7
	maximum = 115
Slowest packet = 131088
Flit latency average = 23.3589
	minimum = 7
	maximum = 115
Slowest flit = 131088
Fragmentation average = 0
	minimum = 0
	maximum = 0
Injected packet rate average = 0.0513125
	minimum = 0.044 (at node 12)
	maximum = 0.0585 (at node 11)
Accepted packet rate average = 0.0508438
	minimum = 0.044 (at node 12)
	maximum = 0.058 (at node 5)
Injected flit rate average = 0.0513125
	minimum = 0.044 (at node 12)
	maximum = 0.0585 (at node 11)
Accepted flit rate average= 0.0508438
	minimum = 0.044 (at node 12)
	maximum = 0.058 (at node 5)
Injected packet length average = 1
Accepted packet length average = 1
Total in-flight flits = 27 (27 measured)
latency change    = 0.0041879
throughput change = 0.00758041
Draining all recorded packets ...
Draining remaining packets ...
Time taken is 3641 cycles
Class 0:
Packet latency average = 22.3939
	minimum = 7
	maximum = 93
Network latency average = 22.3939
	minimum = 7
	maximum = 93
Slowest packet = 132079
Flit latency average = 22.3939
	minimum = 7
	maximum = 93
Slowest flit = 132079
Fragmentation average = 0
	minimum = 0
	maximum = 0
Injected packet rate average = 0.05125
	minimum = 0.034 (at node 2)
	maximum = 0.072 (at node 9)
Accepted packet rate average = 0.0495
	minimum = 0.038 (at node 9)
	maximum = 0.06 (at node 8)
Injected flit rate average = 0.05125
	minimum = 0.034 (at node 2)
	maximum = 0.072 (at node 9)
Accepted flit rate average= 0.0495
	minimum = 0.038 (at node 9)
	maximum = 0.06 (at node 8)
Injected packet length average = 1
Accepted packet length average = 1
Total in-flight flits = 14 (0 measured)
latency change    = 1
throughput change = 1
Class 0:
Packet latency average = 23.7187
	minimum = 7
	maximum = 106
Network latency average = 23.7187
	minimum = 7
	maximum = 106
Slowest packet = 132514
Flit latency average = 23.7187
	minimum = 7
	maximum = 106
Slowest flit = 132514
Fragmentation average = 0
	minimum = 0
	maximum = 0
Injected packet rate average = 0.050625
	minimum = 0.039 (at node 14)
	maximum = 0.069 (at node 9)
Accepted packet rate average = 0.048875
	minimum = 0.037 (at node 9)
	maximum = 0.058 (at node 4)
Injected flit rate average = 0.050625
	minimum = 0.039 (at node 14)
	maximum = 0.069 (at node 9)
Accepted flit rate average= 0.048875
	minimum = 0.037 (at node 9)
	maximum = 0.058 (at node 4)
Injected packet length average = 1
Accepted packet length average = 1
Total in-flight flits = 28 (0 measured)
latency change    = 0.0558518
throughput change = 0.0127877
Class 0:
Packet latency average = 25.256
	minimum = 7
	maximum = 97
Network latency average = 25.256
	minimum = 7
	maximum = 97
Slowest packet = 132725
Flit latency average = 25.256
	minimum = 7
	maximum = 97
Slowest flit = 132725
Fragmentation average = 0
	minimum = 0
	maximum = 0
Injected packet rate average = 0.05025
	minimum = 0.038 (at node 11)
	maximum = 0.062 (at node 3)
Accepted packet rate average = 0.05225
	minimum = 0.038 (at node 3)
	maximum = 0.082 (at node 8)
Injected flit rate average = 0.05025
	minimum = 0.038 (at node 11)
	maximum = 0.062 (at node 3)
Accepted flit rate average= 0.05225
	minimum = 0.038 (at node 3)
	maximum = 0.082 (at node 8)
Injected packet length average = 1
Accepted packet length average = 1
Total in-flight flits = 12 (0 measured)
latency change    = 0.0608692
throughput change = 0.0645933
Warmed up ...Time used is 1500 cycles
Class 0:
Packet latency average = 23.624
	minimum = 7
	maximum = 92
Network latency average = 23.624
	minimum = 7
	maximum = 92
Slowest packet = 133184
Flit latency average = 23.6334
	minimum = 7
	maximum = 92
Slowest flit = 133184
Fragmentation average = 0
	minimum = 0
	maximum = 0
Injected packet rate average = 0.04675
	minimum = 0.034 (at node 7)
	maximum = 0.062 (at node 14)
Accepted packet rate average = 0.046375
	minimum = 0.034 (at node 6)
	maximum = 0.058 (at node 5)
Injected flit rate average = 0.04675
	minimum = 0.034 (at node 7)
	maximum = 0.062 (at node 14)
Accepted flit rate average= 0.046375
	minimum = 0.034 (at node 6)
	maximum = 0.058 (at node 5)
Injected packet length average = 1
Accepted packet length average = 1
Total in-flight flits = 15 (15 measured)
latency change    = 0.0690835
throughput change = 0.126685
Class 0:
Packet latency average = 24.2354
	minimum = 7
	maximum = 104
Network latency average = 24.2354
	minimum = 7
	maximum = 104
Slowest packet = 133695
Flit latency average = 24.2304
	minimum = 7
	maximum = 104
Slowest flit = 133695
Fragmentation average = 0
	minimum = 0
	maximum = 0
Injected packet rate average = 0.0481875
	minimum = 0.041 (at node 0)
	maximum = 0.059 (at node 14)
Accepted packet rate average = 0.04775
	minimum = 0.036 (at node 8)
	maximum = 0.06 (at node 0)
Injected flit rate average = 0.0481875
	minimum = 0.041 (at node 0)
	maximum = 0.059 (at node 14)
Accepted flit rate average= 0.04775
	minimum = 0.036 (at node 8)
	maximum = 0.06 (at node 0)
Injected packet length average = 1
Accepted packet length average = 1
Total in-flight flits = 19 (19 measured)
latency change    = 0.0252283
throughput change = 0.0287958
Class 0:
Packet latency average = 23.8961
	minimum = 7
	maximum = 104
Network latency average = 23.8961
	minimum = 7
	maximum = 104
Slowest packet = 133695
Flit latency average = 23.8963
	minimum = 7
	maximum = 104
Slowest flit = 133695
Fragmentation average = 0
	minimum = 0
	maximum = 0
Injected packet rate average = 0.049625
	minimum = 0.042 (at node 9)
	maximum = 0.0573333 (at node 14)
Accepted packet rate average = 0.0490417
	minimum = 0.04 (at node 11)
	maximum = 0.0613333 (at node 0)
Injected flit rate average = 0.049625
	minimum = 0.042 (at node 9)
	maximum = 0.0573333 (at node 14)
Accepted flit rate average= 0.0490417
	minimum = 0.04 (at node 11)
	maximum = 0.0613333 (at node 0)
Injected packet length average = 1
Accepted packet length average = 1
Total in-flight flits = 26 (26 measured)
latency change    = 0.0141962
throughput change = 0.0263381
Class 0:
Packet latency average = 24.0792
	minimum = 7
	maximum = 104
Network latency average = 24.0792
	minimum = 7
	maximum = 104
Slowest packet = 133695
Flit latency average = 24.078
	minimum = 7
	maximum = 104
Slowest flit = 133695
Fragmentation average = 0
	minimum = 0
	maximum = 0
Injected packet rate average = 0.0501562
	minimum = 0.0435 (at node 9)
	maximum = 0.059 (at node 4)
Accepted packet rate average = 0.0500937
	minimum = 0.0405 (at node 15)
	maximum = 0.063 (at node 10)
Injected flit rate average = 0.0501562
	minimum = 0.0435 (at node 9)
	maximum = 0.059 (at node 4)
Accepted flit rate average= 0.0500937
	minimum = 0.0405 (at node 15)
	maximum = 0.063 (at node 10)
Injected packet length average = 1
Accepted packet length average = 1
Total in-flight flits = 14 (14 measured)
latency change    = 0.00760234
throughput change = 0.0210023
Draining all recorded packets ...
Draining remaining packets ...
Time taken is 3586 cycles
Class 0:
Packet latency average = 22.7781
	minimum = 7
	maximum = 87
Network latency average = 22.7781
	minimum = 7
	maximum = 87
Slowest packet = 134927
Flit latency average = 22.7781
	minimum = 7
	maximum = 87
Slowest flit = 134927
Fragmentation average = 0
	minimum = 0
	maximum = 0
Injected packet rate average = 0.04875
	minimum = 0.024 (at node 8)
	maximum = 0.064 (at node 10)
Accepted packet rate average = 0.04675
	minimum = 0.024 (at node 6)
	maximum = 0.062 (at node 7)
Injected flit rate average = 0.04875
	minimum = 0.024 (at node 8)
	maximum = 0.064 (at node 10)
Accepted flit rate average= 0.04675
	minimum = 0.024 (at node 6)
	maximum = 0.062 (at node 7)
Injected packet length average = 1
Accepted packet length average = 1
Total in-flight flits = 16 (0 measured)
latency change    = 1
throughput change = 1
Class 0:
Packet latency average = 24.637
	minimum = 7
	maximum = 147
Network latency average = 24.637
	minimum = 7
	maximum = 147
Slowest packet = 135414
Flit latency average = 24.637
	minimum = 7
	maximum = 147
Slowest flit = 135414
Fragmentation average = 0
	minimum = 0
	maximum = 0
Injected packet rate average = 0.04975
	minimum = 0.043 (at node 8)
	maximum = 0.058 (at node 4)
Accepted packet rate average = 0.048375
	minimum = 0.032 (at node 15)
	maximum = 0.062 (at node 7)
Injected flit rate average = 0.04975
	minimum = 0.043 (at node 8)
	maximum = 0.058 (at node 4)
Accepted flit rate average= 0.048375
	minimum = 0.032 (at node 15)
	maximum = 0.062 (at node 7)
Injected packet length average = 1
Accepted packet length average = 1
Total in-flight flits = 22 (0 measured)
latency change    = 0.0754507
throughput change = 0.0335917
Class 0:
Packet latency average = 23.5406
	minimum = 7
	maximum = 102
Network latency average = 23.5406
	minimum = 7
	maximum = 102
Slowest packet = 135748
Flit latency average = 23.5406
	minimum = 7
	maximum = 102
Slowest flit = 135748
Fragmentation average = 0
	minimum = 0
	maximum = 0
Injected packet rate average = 0.05325
	minimum = 0.028 (at node 6)
	maximum = 0.08 (at node 5)
Accepted packet rate average = 0.053875
	minimum = 0.038 (at node 14)
	maximum = 0.064 (at node 7)
Injected flit rate average = 0.05325
	minimum = 0.028 (at node 6)
	maximum = 0.08 (at node 5)
Accepted flit rate average= 0.053875
	minimum = 0.038 (at node 14)
	maximum = 0.064 (at node 7)
Injected packet length average = 1
Accepted packet length average = 1
Total in-flight flits = 17 (0 measured)
latency change    = 0.0465726
throughput change = 0.102088
Warmed up ...Time used is 1500 cycles
Class 0:
Packet latency average = 24.4838
	minimum = 7
	maximum = 108
Network latency average = 24.4838
	minimum = 7
	maximum = 108
Slowest packet = 136058
Flit latency average = 24.4809
	minimum = 7
	maximum = 108
Slowest flit = 136058
Fragmentation average = 0
	minimum = 0
	maximum = 0
Injected packet rate average = 0.05225
	minimum = 0.036 (at node 4)
	maximum = 0.076 (at node 13)
Accepted packet rate average = 0.05225
	minimum = 0.034 (at node 6)
	maximum = 0.074 (at node 7)
Injected flit rate average = 0.05225
	minimum = 0.036 (at node 4)
	maximum = 0.076 (at node 13)
Accepted flit rate average= 0.05225
	minimum = 0.034 (at node 6)
	maximum = 0.074 (at node 7)
Injected packet length average = 1
Accepted packet length average = 1
Total in-flight flits = 17 (17 measured)
latency change    = 0.0385229
throughput change = 0.0311005
Class 0:
Packet latency average = 24.1768
	minimum = 7
	maximum = 108
Network latency average = 24.1768
	minimum = 7
	maximum = 108
Slowest packet = 136058
Flit latency average = 24.1818
	minimum = 7
	maximum = 108
Slowest flit = 136058
Fragmentation average = 0
	minimum = 0
	maximum = 0
Injected packet rate average = 0.050125
	minimum = 0.04 (at node 0)
	maximum = 0.068 (at node 13)
Accepted packet rate average = 0.0501875
	minimum = 0.036 (at node 6)
	maximum = 0.066 (at node 11)
Injected flit rate average = 0.050125
	minimum = 0.04 (at node 0)
	maximum = 0.068 (at node 13)
Accepted flit rate average= 0.0501875
	minimum = 0.036 (at node 6)
	maximum = 0.066 (at node 11)
Injected packet length average = 1
Accepted packet length average = 1
Total in-flight flits = 16 (16 measured)
latency change    = 0.0126959
throughput change = 0.0410959
Class 0:
Packet latency average = 23.9115
	minimum = 7
	maximum = 108
Network latency average = 23.9115
	minimum = 7
	maximum = 108
Slowest packet = 136058
Flit latency average = 23.9187
	minimum = 7
	maximum = 108
Slowest flit = 136058
Fragmentation average = 0
	minimum = 0
	maximum = 0
Injected packet rate average = 0.0492917
	minimum = 0.0353333 (at node 7)
	maximum = 0.062 (at node 13)
Accepted packet rate average = 0.0492083
	minimum = 0.0393333 (at node 6)
	maximum = 0.0613333 (at node 11)
Injected flit rate average = 0.0492917
	minimum = 0.0353333 (at node 7)
	maximum = 0.062 (at node 13)
Accepted flit rate average= 0.0492083
	minimum = 0.0393333 (at node 6)
	maximum = 0.0613333 (at node 11)
Injected packet length average = 1
Accepted packet length average = 1
Total in-flight flits = 19 (19 measured)
latency change    = 0.0110964
throughput change = 0.0198984
Draining all recorded packets ...
Draining remaining packets ...
Time taken is 3112 cycles
Class 0:
Packet latency average = 23.0159
	minimum = 7
	maximum = 87
Network latency average = 23.0159
	minimum = 7
	maximum = 87
Slowest packet = 137496
Flit latency average = 23.0159
	minimum = 7
	maximum = 87
Slowest flit = 137496
Fragmentation average = 0
	minimum = 0
	maximum = 0
Injected packet rate average = 0.0505
	minimum = 0.032 (at node 3)
	maximum = 0.076 (at node 11)
Accepted packet rate average = 0.04725
	minimum = 0.028 (at node 4)
	maximum = 0.068 (at node 14)
Injected flit rate average = 0.0505
	minimum = 0.032 (at node 3)
	maximum = 0.076 (at node 11)
Accepted flit rate average= 0.04725
	minimum = 0.028 (at node 4)
	maximum = 0.068 (at node 14)
Injected packet length average = 1
Accepted packet length average = 1
Total in-flight flits = 26 (0 measured)
latency change    = 1
throughput change = 1
Class 0:
Packet latency average = 24.4731
	minimum = 7
	maximum = 126
Network latency average = 24.4731
	minimum = 7
	maximum = 126
Slowest packet = 137550
Flit latency average = 24.4731
	minimum = 7
	maximum = 126
Slowest flit = 137550
Fragmentation average = 0
	minimum = 0
	maximum = 0
Injected packet rate average = 0.04975
	minimum = 0.036 (at node 4)
	maximum = 0.058 (at node 15)
Accepted packet rate average = 0.048875
	minimum = 0.031 (at node 4)
	maximum = 0.062 (at node 14)
Injected flit rate average = 0.04975
	minimum = 0.036 (at node 4)
	maximum = 0.058 (at node 15)
Accepted flit rate average= 0.048875
	minimum = 0.031 (at node 4)
	maximum = 0.062 (at node 14)
Injected packet length average = 1
Accepted packet length average = 1
Total in-flight flits = 14 (0 measured)
latency change    = 0.0595458
throughput change = 0.0332481
Class 0:
Packet latency average = 25.5619
	minimum = 7
	maximum = 153
Network latency average = 25.5619
	minimum = 7
	maximum = 153
Slowest packet = 138077
Flit latency average = 25.5619
	minimum = 7
	maximum = 153
Slowest flit = 138077
Fragmentation average = 0
	minimum = 0
	maximum = 0
Injected packet rate average = 0.049125
	minimum = 0.028 (at node 3)
	maximum = 0.07 (at node 12)
Accepted packet rate average = 0.0485
	minimum = 0.028 (at node 2)
	maximum = 0.07 (at node 8)
Injected flit rate average = 0.049125
	minimum = 0.028 (at node 3)
	maximum = 0.07 (at node 12)
Accepted flit rate average= 0.0485
	minimum = 0.028 (at node 2)
	maximum = 0.07 (at node 8)
Injected packet length average = 1
Accepted packet length average = 1
Total in-flight flits = 19 (0 measured)
latency change    = 0.0425912
throughput change = 0.00773196
Warmed up ...Time used is 1500 cycles
Class 0:
Packet latency average = 24.0323
	minimum = 7
	maximum = 78
Network latency average = 24.0323
	minimum = 7
	maximum = 78
Slowest packet = 138573
Flit latency average = 24.1923
	minimum = 7
	maximum = 82
Slowest flit = 138412
Fragmentation average = 0
	minimum = 0
	maximum = 0
Injected packet rate average = 0.04875
	minimum = 0.034 (at node 7)
	maximum = 0.07 (at node 10)
Accepted packet rate average = 0.04875
	minimum = 0.032 (at node 10)
	maximum = 0.072 (at node 2)
Injected flit rate average = 0.04875
	minimum = 0.034 (at node 7)
	maximum = 0.07 (at node 10)
Accepted flit rate average= 0.04875
	minimum = 0.032 (at node 10)
	maximum = 0.072 (at node 2)
Injected packet length average = 1
Accepted packet length average = 1
Total in-flight flits = 19 (19 measured)
latency change    = 0.0636438
throughput change = 0.00512821
Class 0:
Packet latency average = 23.9831
	minimum = 7
	maximum = 98
Network latency average = 23.9831
	minimum = 7
	maximum = 98
Slowest packet = 138826
Flit latency average = 24.0636
	minimum = 7
	maximum = 98
Slowest flit = 138826
Fragmentation average = 0
	minimum = 0
	maximum = 0
Injected packet rate average = 0.0493125
	minimum = 0.036 (at node 11)
	maximum = 0.058 (at node 6)
Accepted packet rate average = 0.049125
	minimum = 0.03 (at node 5)
	maximum = 0.059 (at node 12)
Injected flit rate average = 0.0493125
	minimum = 0.036 (at node 11)
	maximum = 0.058 (at node 6)
Accepted flit rate average= 0.049125
	minimum = 0.03 (at node 5)
	maximum = 0.059 (at node 12)
Injected packet length average = 1
Accepted packet length average = 1
Total in-flight flits = 22 (22 measured)
latency change    = 0.00205538
throughput change = 0.00763359
Class 0:
Packet latency average = 24.2971
	minimum = 7
	maximum = 105
Network latency average = 24.2971
	minimum = 7
	maximum = 105
Slowest packet = 139245
Flit latency average = 24.344
	minimum = 7
	maximum = 105
Slowest flit = 139245
Fragmentation average = 0
	minimum = 0
	maximum = 0
Injected packet rate average = 0.051375
	minimum = 0.0413333 (at node 11)
	maximum = 0.0633333 (at node 12)
Accepted packet rate average = 0.051
	minimum = 0.0286667 (at node 5)
	maximum = 0.0613333 (at node 4)
Injected flit rate average = 0.051375
	minimum = 0.0413333 (at node 11)
	maximum = 0.0633333 (at node 12)
Accepted flit rate average= 0.051
	minimum = 0.0286667 (at node 5)
	maximum = 0.0613333 (at node 4)
Injected packet length average = 1
Accepted packet length average = 1
Total in-flight flits = 28 (28 measured)
latency change    = 0.0129252
throughput change = 0.0367647
Class 0:
Packet latency average = 24.4826
	minimum = 7
	maximum = 105
Network latency average = 24.4826
	minimum = 7
	maximum = 105
Slowest packet = 139245
Flit latency average = 24.5157
	minimum = 7
	maximum = 105
Slowest flit = 139245
Fragmentation average = 0
	minimum = 0
	maximum = 0
Injected packet rate average = 0.0508438
	minimum = 0.0425 (at node 15)
	maximum = 0.0585 (at node 12)
Accepted packet rate average = 0.0508438
	minimum = 0.035 (at node 5)
	maximum = 0.057 (at node 11)
Injected flit rate average = 0.0508438
	minimum = 0.0425 (at node 15)
	maximum = 0.0585 (at node 12)
Accepted flit rate average= 0.0508438
	minimum = 0.035 (at node 5)
	maximum = 0.057 (at node 11)
Injected packet length average = 1
Accepted packet length average = 1
Total in-flight flits = 19 (19 measured)
latency change    = 0.00757647
throughput change = 0.00307314
Draining all recorded packets ...
Draining remaining packets ...
Time taken is 3612 cycles
====== Overall Traffic Statistics ======
====== Traffic class 0 ======
Packet latency average = 24.0166 (50 samples)
	minimum = 7 (50 samples)
	maximum = 112.58 (50 samples)
Network latency average = 24.016 (50 samples)
	minimum = 7 (50 samples)
	maximum = 112.58 (50 samples)
Flit latency average = 24.1196 (50 samples)
	minimum = 7 (50 samples)
	maximum = 113.54 (50 samples)
Fragmentation average = 0 (50 samples)
	minimum = 0 (50 samples)
	maximum = 0 (50 samples)
Injected packet rate average = 0.0500392 (50 samples)
	minimum = 0.0414827 (50 samples)
	maximum = 0.0587033 (50 samples)
Accepted packet rate average = 0.0500261 (50 samples)
	minimum = 0.041308 (50 samples)
	maximum = 0.0588627 (50 samples)
Injected flit rate average = 0.0500392 (50 samples)
	minimum = 0.0414827 (50 samples)
	maximum = 0.0587033 (50 samples)
Accepted flit rate average = 0.0500261 (50 samples)
	minimum = 0.041308 (50 samples)
	maximum = 0.0588627 (50 samples)
Injected packet size average = 1 (50 samples)
Accepted packet size average = 1 (50 samples)
Hops average = 4.06914 (50 samples)
Total run time 2.0824
