BEGIN Configuration File: /tmp/tmp9b0js8t3.cfg
topology = mesh;
k = 4;
n = 2;
routing_function = dor;
num_vcs = 4;
vc_buf_size = 4;
wait_for_tail_credit = 1;
vc_allocator = islip;
sw_allocator = islip;
alloc_iters = 1;
credit_delay = 2;
routing_delay = 1;
vc_alloc_delay = 1;
sw_alloc_delay = 1;
input_speedup = 2;
output_speedup = 1;
internal_speedup = 1.0;
traffic = hotspot;
packet_size = 1;
sim_type = latency;
injection_rate = 0.01;
warmup_periods = 3;
sample_period = 500;
sim_count = 50;
seed = 0;
link_failures = 2;
fail_seed = 101;

END Configuration File: /tmp/tmp9b0js8t3.cfg
failure at node 14, channel 0 (1/2)
failure at node 12, channel 0 (2/2)
Class 0:
Packet latency average = 19.6173
	minimum = 7
	maximum = 33
Network latency average = 19.6173
	minimum = 7
	maximum = 33
Slowest packet = 62
Flit latency average = 19.6173
	minimum = 7
	maximum = 33
Slowest flit = 62
Fragmentation average = 0
	minimum = 0
	maximum = 0
Injected packet rate average = 0.010375
	minimum = 0.004 (at node 5)
	maximum = 0.016 (at node 9)
Accepted packet rate average = 0.010125
	minimum = 0 (at node 0)
	maximum = 0.162 (at node 4)
Injected flit rate average = 0.010375
	minimum = 0.004 (at node 5)
	maximum = 0.016 (at node 9)
Accepted flit rate average= 0.010125
	minimum = 0 (at node 0)
	maximum = 0.162 (at node 4)
Injected packet length average = 1
Accepted packet length average = 1
Total in-flight flits = 2 (0 measured)
latency change    = 1
throughput change = 1
Class 0:
Packet latency average = 19.3399
	minimum = 7
	maximum = 33
Network latency average = 19.3399
	minimum = 7
	maximum = 33
Slowest packet = 62
Flit latency average = 19.3399
	minimum = 7
	maximum = 33
Slowest flit = 62
Fragmentation average = 0
	minimum = 0
	maximum = 0
Injected packet rate average = 0.00975
	minimum = 0.004 (at node 11)
	maximum = 0.014 (at node 13)
Accepted packet rate average = 0.0095625
	minimum = 0 (at node 0)
	maximum = 0.153 (at node 4)
Injected flit rate average = 0.00975
	minimum = 0.004 (at node 11)
	maximum = 0.014 (at node 13)
Accepted flit rate average= 0.0095625
	minimum = 0 (at node 0)
	maximum = 0.153 (at node 4)
Injected packet length average = 1
Accepted packet length average = 1
Total in-flight flits = 3 (0 measured)
latency change    = 0.0143442
throughput change = 0.0588235
Class 0:
Packet latency average = 19.3803
	minimum = 7
	maximum = 32
Network latency average = 19.3803
	minimum = 7
	maximum = 32
Slowest packet = 152
Flit latency average = 19.3803
	minimum = 7
	maximum = 32
Slowest flit = 152
Fragmentation average = 0
	minimum = 0
	maximum = 0
Injected packet rate average = 0.00925
	minimum = 0.002 (at node 11)
	maximum = 0.016 (at node 10)
Accepted packet rate average = 0.008875
	minimum = 0 (at node 0)
	maximum = 0.142 (at node 4)
Injected flit rate average = 0.00925
	minimum = 0.002 (at node 11)
	maximum = 0.016 (at node 10)
Accepted flit rate average= 0.008875
	minimum = 0 (at node 0)
	maximum = 0.142 (at node 4)
Injected packet length average = 1
Accepted packet length average = 1
Total in-flight flits = 6 (0 measured)
latency change    = 0.00208523
throughput change = 0.0774648
Warmed up ...Time used is 1500 cycles
Class 0:
Packet latency average = 18.9467
	minimum = 7
	maximum = 32
Network latency average = 18.9467
	minimum = 7
	maximum = 32
Slowest packet = 230
Flit latency average = 19.1852
	minimum = 7
	maximum = 32
Slowest flit = 230
Fragmentation average = 0
	minimum = 0
	maximum = 0
Injected packet rate average = 0.00975
	minimum = 0.004 (at node 3)
	maximum = 0.018 (at node 8)
Accepted packet rate average = 0.010125
	minimum = 0 (at node 0)
	maximum = 0.162 (at node 4)
Injected flit rate average = 0.00975
	minimum = 0.004 (at node 3)
	maximum = 0.018 (at node 8)
Accepted flit rate average= 0.010125
	minimum = 0 (at node 0)
	maximum = 0.162 (at node 4)
Injected packet length average = 1
Accepted packet length average = 1
Total in-flight flits = 3 (3 measured)
latency change    = 0.0228861
throughput change = 0.123457
Class 0:
Packet latency average = 19.6013
	minimum = 7
	maximum = 32
Network latency average = 19.6013
	minimum = 7
	maximum = 32
Slowest packet = 230
Flit latency average = 19.6981
	minimum = 7
	maximum = 32
Slowest flit = 230
Fragmentation average = 0
	minimum = 0
	maximum = 0
Injected packet rate average = 0.0096875
	minimum = 0.005 (at node 7)
	maximum = 0.016 (at node 13)
Accepted packet rate average = 0.0099375
	minimum = 0 (at node 0)
	maximum = 0.159 (at node 4)
Injected flit rate average = 0.0096875
	minimum = 0.005 (at node 7)
	maximum = 0.016 (at node 13)
Accepted flit rate average= 0.0099375
	minimum = 0 (at node 0)
	maximum = 0.159 (at node 4)
Injected packet length average = 1
Accepted packet length average = 1
Total in-flight flits = 2 (2 measured)
latency change    = 0.0333978
throughput change = 0.0188679
Class 0:
Packet latency average = 19.6356
	minimum = 7
	maximum = 33
Network latency average = 19.6356
	minimum = 7
	maximum = 33
Slowest packet = 403
Flit latency average = 19.6983
	minimum = 7
	maximum = 33
Slowest flit = 403
Fragmentation average = 0
	minimum = 0
	maximum = 0
Injected packet rate average = 0.00991667
	minimum = 0.00733333 (at node 7)
	maximum = 0.0133333 (at node 13)
Accepted packet rate average = 0.0100833
	minimum = 0 (at node 0)
	maximum = 0.161333 (at node 4)
Injected flit rate average = 0.00991667
	minimum = 0.00733333 (at node 7)
	maximum = 0.0133333 (at node 13)
Accepted flit rate average= 0.0100833
	minimum = 0 (at node 0)
	maximum = 0.161333 (at node 4)
Injected packet length average = 1
Accepted packet length average = 1
Total in-flight flits = 2 (2 measured)
latency change    = 0.00174612
throughput change = 0.0144628
Class 0:
Packet latency average = 19.5287
	minimum = 7
	maximum = 36
Network latency average = 19.5287
	minimum = 7
	maximum = 36
Slowest packet = 479
Flit latency average = 19.5781
	minimum = 7
	maximum = 36
Slowest flit = 479
Fragmentation average = 0
	minimum = 0
	maximum = 0
Injected packet rate average = 0.00990625
	minimum = 0.0075 (at node 1)
	maximum = 0.013 (at node 8)
Accepted packet rate average = 0.01
	minimum = 0 (at node 0)
	maximum = 0.16 (at node 4)
Injected flit rate average = 0.00990625
	minimum = 0.0075 (at node 1)
	maximum = 0.013 (at node 8)
Accepted flit rate average= 0.01
	minimum = 0 (at node 0)
	maximum = 0.16 (at node 4)
Injected packet length average = 1
Accepted packet length average = 1
Total in-flight flits = 3 (3 measured)
latency change    = 0.00547558
throughput change = 0.00833333
Draining all recorded packets ...
Draining remaining packets ...
Time taken is 3545 cycles
Class 0:
Packet latency average = 20.1746
	minimum = 7
	maximum = 32
Network latency average = 20.1746
	minimum = 7
	maximum = 32
Slowest packet = 560
Flit latency average = 20.1746
	minimum = 7
	maximum = 32
Slowest flit = 560
Fragmentation average = 0
	minimum = 0
	maximum = 0
Injected packet rate average = 0.008125
	minimum = 0.004 (at node 5)
	maximum = 0.016 (at node 11)
Accepted packet rate average = 0.007875
	minimum = 0 (at node 0)
	maximum = 0.126 (at node 4)
Injected flit rate average = 0.008125
	minimum = 0.004 (at node 5)
	maximum = 0.016 (at node 11)
Accepted flit rate average= 0.007875
	minimum = 0 (at node 0)
	maximum = 0.126 (at node 4)
Injected packet length average = 1
Accepted packet length average = 1
Total in-flight flits = 2 (0 measured)
latency change    = 1
throughput change = 1
Class 0:
Packet latency average = 19.9568
	minimum = 7
	maximum = 32
Network latency average = 19.9568
	minimum = 7
	maximum = 32
Slowest packet = 560
Flit latency average = 19.9568
	minimum = 7
	maximum = 32
Slowest flit = 560
Fragmentation average = 0
	minimum = 0
	maximum = 0
Injected packet rate average = 0.0089375
	minimum = 0.006 (at node 8)
	maximum = 0.016 (at node 10)
Accepted packet rate average = 0.0086875
	minimum = 0 (at node 0)
	maximum = 0.139 (at node 4)
Injected flit rate average = 0.0089375
	minimum = 0.006 (at node 8)
	maximum = 0.016 (at node 10)
Accepted flit rate average= 0.0086875
	minimum = 0 (at node 0)
	maximum = 0.139 (at node 4)
Injected packet length average = 1
Accepted packet length average = 1
Total in-flight flits = 4 (0 measured)
latency change    = 0.010912
throughput change = 0.0935252
Class 0:
Packet latency average = 19.4
	minimum = 7
	maximum = 33
Network latency average = 19.4
	minimum = 7
	maximum = 33
Slowest packet = 717
Flit latency average = 19.4
	minimum = 7
	maximum = 33
Slowest flit = 717
Fragmentation average = 0
	minimum = 0
	maximum = 0
Injected packet rate average = 0.00875
	minimum = 0.004 (at node 9)
	maximum = 0.016 (at node 6)
Accepted packet rate average = 0.00875
	minimum = 0 (at node 0)
	maximum = 0.14 (at node 4)
Injected flit rate average = 0.00875
	minimum = 0.004 (at node 9)
	maximum = 0.016 (at node 6)
Accepted flit rate average= 0.00875
	minimum = 0 (at node 0)
	maximum = 0.14 (at node 4)
Injected packet length average = 1
Accepted packet length average = 1
Total in-flight flits = 4 (0 measured)
latency change    = 0.0287028
throughput change = 0.00714286
Warmed up ...Time used is 1500 cycles
Class 0:
Packet latency average = 20.4684
	minimum = 7
	maximum = 38
Network latency average = 20.4684
	minimum = 7
	maximum = 38
Slowest packet = 826
Flit latency average = 20.6024
	minimum = 7
	maximum = 38
Slowest flit = 826
Fragmentation average = 0
	minimum = 0
	maximum = 0
Injected packet rate average = 0.010625
	minimum = 0.002 (at node 2)
	maximum = 0.02 (at node 15)
Accepted packet rate average = 0.010375
	minimum = 0 (at node 0)
	maximum = 0.166 (at node 4)
Injected flit rate average = 0.010625
	minimum = 0.002 (at node 2)
	maximum = 0.02 (at node 15)
Accepted flit rate average= 0.010375
	minimum = 0 (at node 0)
	maximum = 0.166 (at node 4)
Injected packet length average = 1
Accepted packet length average = 1
Total in-flight flits = 6 (6 measured)
latency change    = 0.0521954
throughput change = 0.156627
Class 0:
Packet latency average = 19.7532
	minimum = 7
	maximum = 38
Network latency average = 19.7532
	minimum = 7
	maximum = 38
Slowest packet = 826
Flit latency average = 19.8418
	minimum = 7
	maximum = 38
Slowest flit = 826
Fragmentation average = 0
	minimum = 0
	maximum = 0
Injected packet rate average = 0.0099375
	minimum = 0.005 (at node 6)
	maximum = 0.015 (at node 3)
Accepted packet rate average = 0.009875
	minimum = 0 (at node 0)
	maximum = 0.158 (at node 4)
Injected flit rate average = 0.0099375
	minimum = 0.005 (at node 6)
	maximum = 0.015 (at node 3)
Accepted flit rate average= 0.009875
	minimum = 0 (at node 0)
	maximum = 0.158 (at node 4)
Injected packet length average = 1
Accepted packet length average = 1
Total in-flight flits = 5 (5 measured)
latency change    = 0.036202
throughput change = 0.0506329
Class 0:
Packet latency average = 19.6878
	minimum = 7
	maximum = 38
Network latency average = 19.6878
	minimum = 7
	maximum = 38
Slowest packet = 826
Flit latency average = 19.7469
	minimum = 7
	maximum = 38
Slowest flit = 826
Fragmentation average = 0
	minimum = 0
	maximum = 0
Injected packet rate average = 0.0102083
	minimum = 0.006 (at node 10)
	maximum = 0.0166667 (at node 3)
Accepted packet rate average = 0.0100417
	minimum = 0 (at node 0)
	maximum = 0.160667 (at node 4)
Injected flit rate average = 0.0102083
	minimum = 0.006 (at node 10)
	maximum = 0.0166667 (at node 3)
Accepted flit rate average= 0.0100417
	minimum = 0 (at node 0)
	maximum = 0.160667 (at node 4)
Injected packet length average = 1
Accepted packet length average = 1
Total in-flight flits = 8 (8 measured)
latency change    = 0.00332608
throughput change = 0.0165975
Class 0:
Packet latency average = 19.8508
	minimum = 7
	maximum = 38
Network latency average = 19.8508
	minimum = 7
	maximum = 38
Slowest packet = 826
Flit latency average = 19.8934
	minimum = 7
	maximum = 38
Slowest flit = 826
Fragmentation average = 0
	minimum = 0
	maximum = 0
Injected packet rate average = 0.01
	minimum = 0.0055 (at node 2)
	maximum = 0.0165 (at node 13)
Accepted packet rate average = 0.00996875
	minimum = 0 (at node 0)
	maximum = 0.1595 (at node 4)
Injected flit rate average = 0.01
	minimum = 0.0055 (at node 2)
	maximum = 0.0165 (at node 13)
Accepted flit rate average= 0.00996875
	minimum = 0 (at node 0)
	maximum = 0.1595 (at node 4)
Injected packet length average = 1
Accepted packet length average = 1
Total in-flight flits = 5 (5 measured)
latency change    = 0.00821277
throughput change = 0.00731452
Class 0:
Packet latency average = 19.9671
	minimum = 7
	maximum = 38
Network latency average = 19.9671
	minimum = 7
	maximum = 38
Slowest packet = 826
Flit latency average = 20
	minimum = 7
	maximum = 38
Slowest flit = 826
Fragmentation average = 0
	minimum = 0
	maximum = 0
Injected packet rate average = 0.00995
	minimum = 0.0068 (at node 2)
	maximum = 0.0156 (at node 13)
Accepted packet rate average = 0.009975
	minimum = 0 (at node 0)
	maximum = 0.1596 (at node 4)
Injected flit rate average = 0.00995
	minimum = 0.0068 (at node 2)
	maximum = 0.0156 (at node 13)
Accepted flit rate average= 0.009975
	minimum = 0 (at node 0)
	maximum = 0.1596 (at node 4)
Injected packet length average = 1
Accepted packet length average = 1
Total in-flight flits = 3 (3 measured)
latency change    = 0.00582433
throughput change = 0.000626566
Draining all recorded packets ...
Draining remaining packets ...
Time taken is 4039 cycles
Class 0:
Packet latency average = 19.9425
	minimum = 7
	maximum = 32
Network latency average = 19.9425
	minimum = 7
	maximum = 32
Slowest packet = 1172
Flit latency average = 19.9425
	minimum = 7
	maximum = 32
Slowest flit = 1172
Fragmentation average = 0
	minimum = 0
	maximum = 0
Injected packet rate average = 0.011375
	minimum = 0.004 (at node 5)
	maximum = 0.02 (at node 1)
Accepted packet rate average = 0.010875
	minimum = 0 (at node 0)
	maximum = 0.174 (at node 4)
Injected flit rate average = 0.011375
	minimum = 0.004 (at node 5)
	maximum = 0.02 (at node 1)
Accepted flit rate average= 0.010875
	minimum = 0 (at node 0)
	maximum = 0.174 (at node 4)
Injected packet length average = 1
Accepted packet length average = 1
Total in-flight flits = 4 (0 measured)
latency change    = 1
throughput change = 1
Class 0:
Packet latency average = 19.8824
	minimum = 7
	maximum = 34
Network latency average = 19.8824
	minimum = 7
	maximum = 34
Slowest packet = 1287
Flit latency average = 19.8824
	minimum = 7
	maximum = 34
Slowest flit = 1287
Fragmentation average = 0
	minimum = 0
	maximum = 0
Injected packet rate average = 0.011875
	minimum = 0.007 (at node 8)
	maximum = 0.017 (at node 1)
Accepted packet rate average = 0.0116875
	minimum = 0 (at node 0)
	maximum = 0.187 (at node 4)
Injected flit rate average = 0.011875
	minimum = 0.007 (at node 8)
	maximum = 0.017 (at node 1)
Accepted flit rate average= 0.0116875
	minimum = 0 (at node 0)
	maximum = 0.187 (at node 4)
Injected packet length average = 1
Accepted packet length average = 1
Total in-flight flits = 3 (0 measured)
latency change    = 0.00302659
throughput change = 0.0695187
Class 0:
Packet latency average = 19.1011
	minimum = 7
	maximum = 33
Network latency average = 19.1011
	minimum = 7
	maximum = 33
Slowest packet = 1388
Flit latency average = 19.1011
	minimum = 7
	maximum = 33
Slowest flit = 1388
Fragmentation average = 0
	minimum = 0
	maximum = 0
Injected packet rate average = 0.011
	minimum = 0.004 (at node 5)
	maximum = 0.016 (at node 1)
Accepted packet rate average = 0.011125
	minimum = 0 (at node 0)
	maximum = 0.178 (at node 4)
Injected flit rate average = 0.011
	minimum = 0.004 (at node 5)
	maximum = 0.016 (at node 1)
Accepted flit rate average= 0.011125
	minimum = 0 (at node 0)
	maximum = 0.178 (at node 4)
Injected packet length average = 1
Accepted packet length average = 1
Total in-flight flits = 2 (0 measured)
latency change    = 0.0408997
throughput change = 0.0505618
Warmed up ...Time used is 1500 cycles
Class 0:
Packet latency average = 20.0133
	minimum = 7
	maximum = 32
Network latency average = 20.0133
	minimum = 7
	maximum = 32
Slowest packet = 1465
Flit latency average = 20.2078
	minimum = 7
	maximum = 32
Slowest flit = 1465
Fragmentation average = 0
	minimum = 0
	maximum = 0
Injected packet rate average = 0.009625
	minimum = 0.002 (at node 5)
	maximum = 0.02 (at node 7)
Accepted packet rate average = 0.009625
	minimum = 0 (at node 0)
	maximum = 0.154 (at node 4)
Injected flit rate average = 0.009625
	minimum = 0.002 (at node 5)
	maximum = 0.02 (at node 7)
Accepted flit rate average= 0.009625
	minimum = 0 (at node 0)
	maximum = 0.154 (at node 4)
Injected packet length average = 1
Accepted packet length average = 1
Total in-flight flits = 2 (2 measured)
latency change    = 0.0455801
throughput change = 0.155844
Class 0:
Packet latency average = 19.9291
	minimum = 7
	maximum = 32
Network latency average = 19.9291
	minimum = 7
	maximum = 32
Slowest packet = 1465
Flit latency average = 20.035
	minimum = 7
	maximum = 32
Slowest flit = 1465
Fragmentation average = 0
	minimum = 0
	maximum = 0
Injected packet rate average = 0.0089375
	minimum = 0.004 (at node 2)
	maximum = 0.014 (at node 3)
Accepted packet rate average = 0.0089375
	minimum = 0 (at node 0)
	maximum = 0.143 (at node 4)
Injected flit rate average = 0.0089375
	minimum = 0.004 (at node 2)
	maximum = 0.014 (at node 3)
Accepted flit rate average= 0.0089375
	minimum = 0 (at node 0)
	maximum = 0.143 (at node 4)
Injected packet length average = 1
Accepted packet length average = 1
Total in-flight flits = 2 (2 measured)
latency change    = 0.00422776
throughput change = 0.0769231
Class 0:
Packet latency average = 19.5434
	minimum = 7
	maximum = 32
Network latency average = 19.5434
	minimum = 7
	maximum = 32
Slowest packet = 1465
Flit latency average = 19.6154
	minimum = 7
	maximum = 32
Slowest flit = 1465
Fragmentation average = 0
	minimum = 0
	maximum = 0
Injected packet rate average = 0.00925
	minimum = 0.00333333 (at node 2)
	maximum = 0.012 (at node 1)
Accepted packet rate average = 0.00920833
	minimum = 0 (at node 0)
	maximum = 0.147333 (at node 4)
Injected flit rate average = 0.00925
	minimum = 0.00333333 (at node 2)
	maximum = 0.012 (at node 1)
Accepted flit rate average= 0.00920833
	minimum = 0 (at node 0)
	maximum = 0.147333 (at node 4)
Injected packet length average = 1
Accepted packet length average = 1
Total in-flight flits = 3 (3 measured)
latency change    = 0.0197355
throughput change = 0.0294118
Class 0:
Packet latency average = 19.5581
	minimum = 7
	maximum = 32
Network latency average = 19.5581
	minimum = 7
	maximum = 32
Slowest packet = 1465
Flit latency average = 19.6106
	minimum = 7
	maximum = 32
Slowest flit = 1465
Fragmentation average = 0
	minimum = 0
	maximum = 0
Injected packet rate average = 0.00946875
	minimum = 0.005 (at node 2)
	maximum = 0.013 (at node 1)
Accepted packet rate average = 0.00946875
	minimum = 0 (at node 0)
	maximum = 0.1515 (at node 4)
Injected flit rate average = 0.00946875
	minimum = 0.005 (at node 2)
	maximum = 0.013 (at node 1)
Accepted flit rate average= 0.00946875
	minimum = 0 (at node 0)
	maximum = 0.1515 (at node 4)
Injected packet length average = 1
Accepted packet length average = 1
Total in-flight flits = 2 (2 measured)
latency change    = 0.000754701
throughput change = 0.0275028
Class 0:
Packet latency average = 19.6777
	minimum = 7
	maximum = 33
Network latency average = 19.6777
	minimum = 7
	maximum = 33
Slowest packet = 1831
Flit latency average = 19.7176
	minimum = 7
	maximum = 33
Slowest flit = 1831
Fragmentation average = 0
	minimum = 0
	maximum = 0
Injected packet rate average = 0.009775
	minimum = 0.0072 (at node 6)
	maximum = 0.0124 (at node 1)
Accepted packet rate average = 0.009825
	minimum = 0 (at node 0)
	maximum = 0.1572 (at node 4)
Injected flit rate average = 0.009775
	minimum = 0.0072 (at node 6)
	maximum = 0.0124 (at node 1)
Accepted flit rate average= 0.009825
	minimum = 0 (at node 0)
	maximum = 0.1572 (at node 4)
Injected packet length average = 1
Accepted packet length average = 1
Total in-flight flits = 0 (0 measured)
latency change    = 0.00607843
throughput change = 0.0362595
Draining all recorded packets ...
Draining remaining packets ...
Time taken is 4001 cycles
Class 0:
Packet latency average = 19.1235
	minimum = 7
	maximum = 32
Network latency average = 19.1235
	minimum = 7
	maximum = 32
Slowest packet = 1860
Flit latency average = 19.1235
	minimum = 7
	maximum = 32
Slowest flit = 1860
Fragmentation average = 0
	minimum = 0
	maximum = 0
Injected packet rate average = 0.0105
	minimum = 0.006 (at node 3)
	maximum = 0.018 (at node 7)
Accepted packet rate average = 0.010125
	minimum = 0 (at node 0)
	maximum = 0.162 (at node 4)
Injected flit rate average = 0.0105
	minimum = 0.006 (at node 3)
	maximum = 0.018 (at node 7)
Accepted flit rate average= 0.010125
	minimum = 0 (at node 0)
	maximum = 0.162 (at node 4)
Injected packet length average = 1
Accepted packet length average = 1
Total in-flight flits = 3 (0 measured)
latency change    = 1
throughput change = 1
Class 0:
Packet latency average = 19.5655
	minimum = 7
	maximum = 36
Network latency average = 19.5655
	minimum = 7
	maximum = 36
Slowest packet = 1974
Flit latency average = 19.5655
	minimum = 7
	maximum = 36
Slowest flit = 1974
Fragmentation average = 0
	minimum = 0
	maximum = 0
Injected packet rate average = 0.010625
	minimum = 0.006 (at node 9)
	maximum = 0.018 (at node 7)
Accepted packet rate average = 0.0105
	minimum = 0 (at node 0)
	maximum = 0.168 (at node 4)
Injected flit rate average = 0.010625
	minimum = 0.006 (at node 9)
	maximum = 0.018 (at node 7)
Accepted flit rate average= 0.0105
	minimum = 0 (at node 0)
	maximum = 0.168 (at node 4)
Injected packet length average = 1
Accepted packet length average = 1
Total in-flight flits = 2 (0 measured)
latency change    = 0.0225918
throughput change = 0.0357143
Class 0:
Packet latency average = 19.825
	minimum = 7
	maximum = 33
Network latency average = 19.825
	minimum = 7
	maximum = 33
Slowest packet = 2028
Flit latency average = 19.825
	minimum = 7
	maximum = 33
Slowest flit = 2028
Fragmentation average = 0
	minimum = 0
	maximum = 0
Injected packet rate average = 0.010125
	minimum = 0.008 (at node 0)
	maximum = 0.014 (at node 6)
Accepted packet rate average = 0.01
	minimum = 0 (at node 0)
	maximum = 0.16 (at node 4)
Injected flit rate average = 0.010125
	minimum = 0.008 (at node 0)
	maximum = 0.014 (at node 6)
Accepted flit rate average= 0.01
	minimum = 0 (at node 0)
	maximum = 0.16 (at node 4)
Injected packet length average = 1
Accepted packet length average = 1
Total in-flight flits = 3 (0 measured)
latency change    = 0.0130907
throughput change = 0.05
Warmed up ...Time used is 1500 cycles
Class 0:
Packet latency average = 19.1566
	minimum = 7
	maximum = 33
Network latency average = 19.1566
	minimum = 7
	maximum = 33
Slowest packet = 2124
Flit latency average = 19.1395
	minimum = 7
	maximum = 33
Slowest flit = 2124
Fragmentation average = 0
	minimum = 0
	maximum = 0
Injected packet rate average = 0.010875
	minimum = 0 (at node 14)
	maximum = 0.018 (at node 10)
Accepted packet rate average = 0.01075
	minimum = 0 (at node 0)
	maximum = 0.172 (at node 4)
Injected flit rate average = 0.010875
	minimum = 0 (at node 14)
	maximum = 0.018 (at node 10)
Accepted flit rate average= 0.01075
	minimum = 0 (at node 0)
	maximum = 0.172 (at node 4)
Injected packet length average = 1
Accepted packet length average = 1
Total in-flight flits = 4 (4 measured)
latency change    = 0.0348899
throughput change = 0.0697674
Class 0:
Packet latency average = 19.6026
	minimum = 7
	maximum = 33
Network latency average = 19.6026
	minimum = 7
	maximum = 33
Slowest packet = 2124
Flit latency average = 19.5849
	minimum = 7
	maximum = 33
Slowest flit = 2124
Fragmentation average = 0
	minimum = 0
	maximum = 0
Injected packet rate average = 0.0099375
	minimum = 0.005 (at node 14)
	maximum = 0.014 (at node 6)
Accepted packet rate average = 0.0099375
	minimum = 0 (at node 0)
	maximum = 0.159 (at node 4)
Injected flit rate average = 0.0099375
	minimum = 0.005 (at node 14)
	maximum = 0.014 (at node 6)
Accepted flit rate average= 0.0099375
	minimum = 0 (at node 0)
	maximum = 0.159 (at node 4)
Injected packet length average = 1
Accepted packet length average = 1
Total in-flight flits = 3 (3 measured)
latency change    = 0.0227489
throughput change = 0.081761
Class 0:
Packet latency average = 19.4274
	minimum = 7
	maximum = 33
Network latency average = 19.4274
	minimum = 7
	maximum = 33
Slowest packet = 2124
Flit latency average = 19.4177
	minimum = 7
	maximum = 33
Slowest flit = 2124
Fragmentation average = 0
	minimum = 0
	maximum = 0
Injected packet rate average = 0.009875
	minimum = 0.00533333 (at node 14)
	maximum = 0.0133333 (at node 9)
Accepted packet rate average = 0.009875
	minimum = 0 (at node 0)
	maximum = 0.158 (at node 4)
Injected flit rate average = 0.009875
	minimum = 0.00533333 (at node 14)
	maximum = 0.0133333 (at node 9)
Accepted flit rate average= 0.009875
	minimum = 0 (at node 0)
	maximum = 0.158 (at node 4)
Injected packet length average = 1
Accepted packet length average = 1
Total in-flight flits = 3 (3 measured)
latency change    = 0.00901892
throughput change = 0.00632911
Class 0:
Packet latency average = 19.4262
	minimum = 7
	maximum = 33
Network latency average = 19.4262
	minimum = 7
	maximum = 33
Slowest packet = 2124
Flit latency average = 19.4188
	minimum = 7
	maximum = 33
Slowest flit = 2124
Fragmentation average = 0
	minimum = 0
	maximum = 0
Injected packet rate average = 0.009625
	minimum = 0.006 (at node 14)
	maximum = 0.0125 (at node 9)
Accepted packet rate average = 0.009625
	minimum = 0 (at node 0)
	maximum = 0.154 (at node 4)
Injected flit rate average = 0.009625
	minimum = 0.006 (at node 14)
	maximum = 0.0125 (at node 9)
Accepted flit rate average= 0.009625
	minimum = 0 (at node 0)
	maximum = 0.154 (at node 4)
Injected packet length average = 1
Accepted packet length average = 1
Total in-flight flits = 3 (3 measured)
latency change    = 5.77013e-05
throughput change = 0.025974
Class 0:
Packet latency average = 19.4833
	minimum = 7
	maximum = 33
Network latency average = 19.4833
	minimum = 7
	maximum = 33
Slowest packet = 2124
Flit latency average = 19.477
	minimum = 7
	maximum = 33
Slowest flit = 2124
Fragmentation average = 0
	minimum = 0
	maximum = 0
Injected packet rate average = 0.009775
	minimum = 0.006 (at node 3)
	maximum = 0.0124 (at node 7)
Accepted packet rate average = 0.0098
	minimum = 0 (at node 0)
	maximum = 0.1568 (at node 4)
Injected flit rate average = 0.009775
	minimum = 0.006 (at node 3)
	maximum = 0.0124 (at node 7)
Accepted flit rate average= 0.0098
	minimum = 0 (at node 0)
	maximum = 0.1568 (at node 4)
Injected packet length average = 1
Accepted packet length average = 1
Total in-flight flits = 2 (2 measured)
latency change    = 0.00292871
throughput change = 0.0178571
Draining all recorded packets ...
Draining remaining packets ...
Time taken is 4039 cycles
Class 0:
Packet latency average = 19.45
	minimum = 7
	maximum = 32
Network latency average = 19.45
	minimum = 7
	maximum = 32
Slowest packet = 2492
Flit latency average = 19.45
	minimum = 7
	maximum = 32
Slowest flit = 2492
Fragmentation average = 0
	minimum = 0
	maximum = 0
Injected packet rate average = 0.01025
	minimum = 0.002 (at node 0)
	maximum = 0.016 (at node 8)
Accepted packet rate average = 0.01
	minimum = 0 (at node 0)
	maximum = 0.16 (at node 4)
Injected flit rate average = 0.01025
	minimum = 0.002 (at node 0)
	maximum = 0.016 (at node 8)
Accepted flit rate average= 0.01
	minimum = 0 (at node 0)
	maximum = 0.16 (at node 4)
Injected packet length average = 1
Accepted packet length average = 1
Total in-flight flits = 2 (0 measured)
latency change    = 1
throughput change = 1
Class 0:
Packet latency average = 18.8938
	minimum = 7
	maximum = 32
Network latency average = 18.8938
	minimum = 7
	maximum = 32
Slowest packet = 2492
Flit latency average = 18.8938
	minimum = 7
	maximum = 32
Slowest flit = 2492
Fragmentation average = 0
	minimum = 0
	maximum = 0
Injected packet rate average = 0.0101875
	minimum = 0.008 (at node 0)
	maximum = 0.013 (at node 4)
Accepted packet rate average = 0.01
	minimum = 0 (at node 0)
	maximum = 0.16 (at node 4)
Injected flit rate average = 0.0101875
	minimum = 0.008 (at node 0)
	maximum = 0.013 (at node 4)
Accepted flit rate average= 0.01
	minimum = 0 (at node 0)
	maximum = 0.16 (at node 4)
Injected packet length average = 1
Accepted packet length average = 1
Total in-flight flits = 3 (0 measured)
latency change    = 0.029441
throughput change = 0
Class 0:
Packet latency average = 19.7108
	minimum = 7
	maximum = 32
Network latency average = 19.7108
	minimum = 7
	maximum = 32
Slowest packet = 2674
Flit latency average = 19.7108
	minimum = 7
	maximum = 32
Slowest flit = 2674
Fragmentation average = 0
	minimum = 0
	maximum = 0
Injected packet rate average = 0.010625
	minimum = 0.004 (at node 4)
	maximum = 0.022 (at node 11)
Accepted packet rate average = 0.010375
	minimum = 0 (at node 0)
	maximum = 0.166 (at node 4)
Injected flit rate average = 0.010625
	minimum = 0.004 (at node 4)
	maximum = 0.022 (at node 11)
Accepted flit rate average= 0.010375
	minimum = 0 (at node 0)
	maximum = 0.166 (at node 4)
Injected packet length average = 1
Accepted packet length average = 1
Total in-flight flits = 5 (0 measured)
latency change    = 0.041454
throughput change = 0.0361446
Warmed up ...Time used is 1500 cycles
Class 0:
Packet latency average = 20.3559
	minimum = 7
	maximum = 33
Network latency average = 20.3559
	minimum = 7
	maximum = 33
Slowest packet = 2769
Flit latency average = 20.75
	minimum = 7
	maximum = 33
Slowest flit = 2769
Fragmentation average = 0
	minimum = 0
	maximum = 0
Injected packet rate average = 0.0075
	minimum = 0.002 (at node 8)
	maximum = 0.014 (at node 11)
Accepted packet rate average = 0.008
	minimum = 0 (at node 0)
	maximum = 0.128 (at node 4)
Injected flit rate average = 0.0075
	minimum = 0.002 (at node 8)
	maximum = 0.014 (at node 11)
Accepted flit rate average= 0.008
	minimum = 0 (at node 0)
	maximum = 0.128 (at node 4)
Injected packet length average = 1
Accepted packet length average = 1
Total in-flight flits = 1 (1 measured)
latency change    = 0.0316905
throughput change = 0.296875
Class 0:
Packet latency average = 19.5725
	minimum = 7
	maximum = 33
Network latency average = 19.5725
	minimum = 7
	maximum = 33
Slowest packet = 2769
Flit latency average = 19.7762
	minimum = 7
	maximum = 33
Slowest flit = 2769
Fragmentation average = 0
	minimum = 0
	maximum = 0
Injected packet rate average = 0.00875
	minimum = 0.004 (at node 2)
	maximum = 0.014 (at node 11)
Accepted packet rate average = 0.0089375
	minimum = 0 (at node 0)
	maximum = 0.143 (at node 4)
Injected flit rate average = 0.00875
	minimum = 0.004 (at node 2)
	maximum = 0.014 (at node 11)
Accepted flit rate average= 0.0089375
	minimum = 0 (at node 0)
	maximum = 0.143 (at node 4)
Injected packet length average = 1
Accepted packet length average = 1
Total in-flight flits = 2 (2 measured)
latency change    = 0.0400291
throughput change = 0.104895
Class 0:
Packet latency average = 19.583
	minimum = 7
	maximum = 33
Network latency average = 19.583
	minimum = 7
	maximum = 33
Slowest packet = 2769
Flit latency average = 19.7105
	minimum = 7
	maximum = 33
Slowest flit = 2769
Fragmentation average = 0
	minimum = 0
	maximum = 0
Injected packet rate average = 0.00941667
	minimum = 0.004 (at node 9)
	maximum = 0.0133333 (at node 11)
Accepted packet rate average = 0.0095
	minimum = 0 (at node 0)
	maximum = 0.152 (at node 4)
Injected flit rate average = 0.00941667
	minimum = 0.004 (at node 9)
	maximum = 0.0133333 (at node 11)
Accepted flit rate average= 0.0095
	minimum = 0 (at node 0)
	maximum = 0.152 (at node 4)
Injected packet length average = 1
Accepted packet length average = 1
Total in-flight flits = 3 (3 measured)
latency change    = 0.00053597
throughput change = 0.0592105
Class 0:
Packet latency average = 19.3608
	minimum = 7
	maximum = 33
Network latency average = 19.3608
	minimum = 7
	maximum = 33
Slowest packet = 2769
Flit latency average = 19.4628
	minimum = 7
	maximum = 33
Slowest flit = 2769
Fragmentation average = 0
	minimum = 0
	maximum = 0
Injected packet rate average = 0.009125
	minimum = 0.003 (at node 9)
	maximum = 0.0145 (at node 11)
Accepted packet rate average = 0.00925
	minimum = 0 (at node 0)
	maximum = 0.148 (at node 4)
Injected flit rate average = 0.009125
	minimum = 0.003 (at node 9)
	maximum = 0.0145 (at node 11)
Accepted flit rate average= 0.00925
	minimum = 0 (at node 0)
	maximum = 0.148 (at node 4)
Injected packet length average = 1
Accepted packet length average = 1
Total in-flight flits = 1 (1 measured)
latency change    = 0.0114734
throughput change = 0.027027
Class 0:
Packet latency average = 19.6475
	minimum = 7
	maximum = 34
Network latency average = 19.6475
	minimum = 7
	maximum = 34
Slowest packet = 3061
Flit latency average = 19.7251
	minimum = 7
	maximum = 34
Slowest flit = 3061
Fragmentation average = 0
	minimum = 0
	maximum = 0
Injected packet rate average = 0.009175
	minimum = 0.004 (at node 9)
	maximum = 0.0136 (at node 11)
Accepted packet rate average = 0.009275
	minimum = 0 (at node 0)
	maximum = 0.1484 (at node 4)
Injected flit rate average = 0.009175
	minimum = 0.004 (at node 9)
	maximum = 0.0136 (at node 11)
Accepted flit rate average= 0.009275
	minimum = 0 (at node 0)
	maximum = 0.1484 (at node 4)
Injected packet length average = 1
Accepted packet length average = 1
Total in-flight flits = 1 (1 measured)
latency change    = 0.014593
throughput change = 0.00269542
Class 0:
Packet latency average = 19.4676
	minimum = 7
	maximum = 34
Network latency average = 19.4676
	minimum = 7
	maximum = 34
Slowest packet = 3061
Flit latency average = 19.5355
	minimum = 7
	maximum = 34
Slowest flit = 3061
Fragmentation average = 0
	minimum = 0
	maximum = 0
Injected packet rate average = 0.0090625
	minimum = 0.00466667 (at node 9)
	maximum = 0.0133333 (at node 11)
Accepted packet rate average = 0.00910417
	minimum = 0 (at node 0)
	maximum = 0.145667 (at node 4)
Injected flit rate average = 0.0090625
	minimum = 0.00466667 (at node 9)
	maximum = 0.0133333 (at node 11)
Accepted flit rate average= 0.00910417
	minimum = 0 (at node 0)
	maximum = 0.145667 (at node 4)
Injected packet length average = 1
Accepted packet length average = 1
Total in-flight flits = 3 (3 measured)
latency change    = 0.00924348
throughput change = 0.0187643
Draining all recorded packets ...
Draining remaining packets ...
Time taken is 4553 cycles
Class 0:
Packet latency average = 19.1951
	minimum = 7
	maximum = 33
Network latency average = 19.1951
	minimum = 7
	maximum = 33
Slowest packet = 3224
Flit latency average = 19.1951
	minimum = 7
	maximum = 33
Slowest flit = 3224
Fragmentation average = 0
	minimum = 0
	maximum = 0
Injected packet rate average = 0.0105
	minimum = 0.002 (at node 6)
	maximum = 0.02 (at node 10)
Accepted packet rate average = 0.01025
	minimum = 0 (at node 0)
	maximum = 0.164 (at node 4)
Injected flit rate average = 0.0105
	minimum = 0.002 (at node 6)
	maximum = 0.02 (at node 10)
Accepted flit rate average= 0.01025
	minimum = 0 (at node 0)
	maximum = 0.164 (at node 4)
Injected packet length average = 1
Accepted packet length average = 1
Total in-flight flits = 2 (0 measured)
latency change    = 1
throughput change = 1
Class 0:
Packet latency average = 19.8165
	minimum = 7
	maximum = 33
Network latency average = 19.8165
	minimum = 7
	maximum = 33
Slowest packet = 3224
Flit latency average = 19.8165
	minimum = 7
	maximum = 33
Slowest flit = 3224
Fragmentation average = 0
	minimum = 0
	maximum = 0
Injected packet rate average = 0.010125
	minimum = 0.004 (at node 6)
	maximum = 0.015 (at node 7)
Accepted packet rate average = 0.009875
	minimum = 0 (at node 0)
	maximum = 0.158 (at node 4)
Injected flit rate average = 0.010125
	minimum = 0.004 (at node 6)
	maximum = 0.015 (at node 7)
Accepted flit rate average= 0.009875
	minimum = 0 (at node 0)
	maximum = 0.158 (at node 4)
Injected packet length average = 1
Accepted packet length average = 1
Total in-flight flits = 4 (0 measured)
latency change    = 0.0313544
throughput change = 0.0379747
Class 0:
Packet latency average = 19.5632
	minimum = 7
	maximum = 32
Network latency average = 19.5632
	minimum = 7
	maximum = 32
Slowest packet = 3336
Flit latency average = 19.5632
	minimum = 7
	maximum = 32
Slowest flit = 3336
Fragmentation average = 0
	minimum = 0
	maximum = 0
Injected packet rate average = 0.0105
	minimum = 0.004 (at node 2)
	maximum = 0.028 (at node 12)
Accepted packet rate average = 0.010875
	minimum = 0 (at node 0)
	maximum = 0.174 (at node 4)
Injected flit rate average = 0.0105
	minimum = 0.004 (at node 2)
	maximum = 0.028 (at node 12)
Accepted flit rate average= 0.010875
	minimum = 0 (at node 0)
	maximum = 0.174 (at node 4)
Injected packet length average = 1
Accepted packet length average = 1
Total in-flight flits = 1 (0 measured)
latency change    = 0.0129446
throughput change = 0.091954
Warmed up ...Time used is 1500 cycles
Class 0:
Packet latency average = 19.2174
	minimum = 7
	maximum = 32
Network latency average = 19.2174
	minimum = 7
	maximum = 32
Slowest packet = 3456
Flit latency average = 19.1398
	minimum = 7
	maximum = 32
Slowest flit = 3456
Fragmentation average = 0
	minimum = 0
	maximum = 0
Injected packet rate average = 0.01175
	minimum = 0.004 (at node 1)
	maximum = 0.02 (at node 0)
Accepted packet rate average = 0.011625
	minimum = 0 (at node 0)
	maximum = 0.186 (at node 4)
Injected flit rate average = 0.01175
	minimum = 0.004 (at node 1)
	maximum = 0.02 (at node 0)
Accepted flit rate average= 0.011625
	minimum = 0 (at node 0)
	maximum = 0.186 (at node 4)
Injected packet length average = 1
Accepted packet length average = 1
Total in-flight flits = 2 (2 measured)
latency change    = 0.0179955
throughput change = 0.0645161
Class 0:
Packet latency average = 19.8144
	minimum = 7
	maximum = 32
Network latency average = 19.8144
	minimum = 7
	maximum = 32
Slowest packet = 3456
Flit latency average = 19.7679
	minimum = 7
	maximum = 32
Slowest flit = 3456
Fragmentation average = 0
	minimum = 0
	maximum = 0
Injected packet rate average = 0.0106875
	minimum = 0.004 (at node 12)
	maximum = 0.021 (at node 14)
Accepted packet rate average = 0.0105
	minimum = 0 (at node 0)
	maximum = 0.168 (at node 4)
Injected flit rate average = 0.0106875
	minimum = 0.004 (at node 12)
	maximum = 0.021 (at node 14)
Accepted flit rate average= 0.0105
	minimum = 0 (at node 0)
	maximum = 0.168 (at node 4)
Injected packet length average = 1
Accepted packet length average = 1
Total in-flight flits = 4 (4 measured)
latency change    = 0.0301286
throughput change = 0.107143
Class 0:
Packet latency average = 19.476
	minimum = 7
	maximum = 32
Network latency average = 19.476
	minimum = 7
	maximum = 32
Slowest packet = 3456
Flit latency average = 19.4435
	minimum = 7
	maximum = 32
Slowest flit = 3456
Fragmentation average = 0
	minimum = 0
	maximum = 0
Injected packet rate average = 0.00970833
	minimum = 0.00466667 (at node 8)
	maximum = 0.0146667 (at node 14)
Accepted packet rate average = 0.00958333
	minimum = 0 (at node 0)
	maximum = 0.153333 (at node 4)
Injected flit rate average = 0.00970833
	minimum = 0.00466667 (at node 8)
	maximum = 0.0146667 (at node 14)
Accepted flit rate average= 0.00958333
	minimum = 0 (at node 0)
	maximum = 0.153333 (at node 4)
Injected packet length average = 1
Accepted packet length average = 1
Total in-flight flits = 4 (4 measured)
latency change    = 0.0173747
throughput change = 0.0956522
Class 0:
Packet latency average = 19.7349
	minimum = 7
	maximum = 32
Network latency average = 19.7349
	minimum = 7
	maximum = 32
Slowest packet = 3456
Flit latency average = 19.709
	minimum = 7
	maximum = 32
Slowest flit = 3456
Fragmentation average = 0
	minimum = 0
	maximum = 0
Injected packet rate average = 0.00940625
	minimum = 0.0055 (at node 2)
	maximum = 0.0135 (at node 11)
Accepted packet rate average = 0.00934375
	minimum = 0 (at node 0)
	maximum = 0.1495 (at node 4)
Injected flit rate average = 0.00940625
	minimum = 0.0055 (at node 2)
	maximum = 0.0135 (at node 11)
Accepted flit rate average= 0.00934375
	minimum = 0 (at node 0)
	maximum = 0.1495 (at node 4)
Injected packet length average = 1
Accepted packet length average = 1
Total in-flight flits = 3 (3 measured)
latency change    = 0.0131197
throughput change = 0.025641
Class 0:
Packet latency average = 19.6684
	minimum = 7
	maximum = 32
Network latency average = 19.6684
	minimum = 7
	maximum = 32
Slowest packet = 3456
Flit latency average = 19.648
	minimum = 7
	maximum = 32
Slowest flit = 3456
Fragmentation average = 0
	minimum = 0
	maximum = 0
Injected packet rate average = 0.0094
	minimum = 0.006 (at node 2)
	maximum = 0.0136 (at node 10)
Accepted packet rate average = 0.009375
	minimum = 0 (at node 0)
	maximum = 0.15 (at node 4)
Injected flit rate average = 0.0094
	minimum = 0.006 (at node 2)
	maximum = 0.0136 (at node 10)
Accepted flit rate average= 0.009375
	minimum = 0 (at node 0)
	maximum = 0.15 (at node 4)
Injected packet length average = 1
Accepted packet length average = 1
Total in-flight flits = 2 (2 measured)
latency change    = 0.00337851
throughput change = 0.00333333
Class 0:
Packet latency average = 19.5099
	minimum = 7
	maximum = 32
Network latency average = 19.5099
	minimum = 7
	maximum = 32
Slowest packet = 3456
Flit latency average = 19.4934
	minimum = 7
	maximum = 32
Slowest flit = 3456
Fragmentation average = 0
	minimum = 0
	maximum = 0
Injected packet rate average = 0.00947917
	minimum = 0.00633333 (at node 8)
	maximum = 0.0136667 (at node 11)
Accepted packet rate average = 0.00945833
	minimum = 0 (at node 0)
	maximum = 0.151333 (at node 4)
Injected flit rate average = 0.00947917
	minimum = 0.00633333 (at node 8)
	maximum = 0.0136667 (at node 11)
Accepted flit rate average= 0.00945833
	minimum = 0 (at node 0)
	maximum = 0.151333 (at node 4)
Injected packet length average = 1
Accepted packet length average = 1
Total in-flight flits = 2 (2 measured)
latency change    = 0.00812486
throughput change = 0.00881057
Draining all recorded packets ...
Draining remaining packets ...
Time taken is 4542 cycles
Class 0:
Packet latency average = 19.8571
	minimum = 7
	maximum = 33
Network latency average = 19.8571
	minimum = 7
	maximum = 33
Slowest packet = 3880
Flit latency average = 19.8571
	minimum = 7
	maximum = 33
Slowest flit = 3880
Fragmentation average = 0
	minimum = 0
	maximum = 0
Injected packet rate average = 0.00925
	minimum = 0 (at node 10)
	maximum = 0.018 (at node 14)
Accepted packet rate average = 0.00875
	minimum = 0 (at node 0)
	maximum = 0.14 (at node 4)
Injected flit rate average = 0.00925
	minimum = 0 (at node 10)
	maximum = 0.018 (at node 14)
Accepted flit rate average= 0.00875
	minimum = 0 (at node 0)
	maximum = 0.14 (at node 4)
Injected packet length average = 1
Accepted packet length average = 1
Total in-flight flits = 4 (0 measured)
latency change    = 1
throughput change = 1
Class 0:
Packet latency average = 20.4062
	minimum = 7
	maximum = 34
Network latency average = 20.4062
	minimum = 7
	maximum = 34
Slowest packet = 4009
Flit latency average = 20.4062
	minimum = 7
	maximum = 34
Slowest flit = 4009
Fragmentation average = 0
	minimum = 0
	maximum = 0
Injected packet rate average = 0.0101875
	minimum = 0.004 (at node 12)
	maximum = 0.017 (at node 14)
Accepted packet rate average = 0.01
	minimum = 0 (at node 0)
	maximum = 0.16 (at node 4)
Injected flit rate average = 0.0101875
	minimum = 0.004 (at node 12)
	maximum = 0.017 (at node 14)
Accepted flit rate average= 0.01
	minimum = 0 (at node 0)
	maximum = 0.16 (at node 4)
Injected packet length average = 1
Accepted packet length average = 1
Total in-flight flits = 3 (0 measured)
latency change    = 0.0269088
throughput change = 0.125
Class 0:
Packet latency average = 19.4667
	minimum = 7
	maximum = 35
Network latency average = 19.4667
	minimum = 7
	maximum = 35
Slowest packet = 4094
Flit latency average = 19.4667
	minimum = 7
	maximum = 35
Slowest flit = 4094
Fragmentation average = 0
	minimum = 0
	maximum = 0
Injected packet rate average = 0.011375
	minimum = 0.006 (at node 4)
	maximum = 0.022 (at node 8)
Accepted packet rate average = 0.01125
	minimum = 0 (at node 0)
	maximum = 0.18 (at node 4)
Injected flit rate average = 0.011375
	minimum = 0.006 (at node 4)
	maximum = 0.022 (at node 8)
Accepted flit rate average= 0.01125
	minimum = 0 (at node 0)
	maximum = 0.18 (at node 4)
Injected packet length average = 1
Accepted packet length average = 1
Total in-flight flits = 4 (0 measured)
latency change    = 0.0482663
throughput change = 0.111111
Warmed up ...Time used is 1500 cycles
Class 0:
Packet latency average = 19.8525
	minimum = 7
	maximum = 32
Network latency average = 19.8525
	minimum = 7
	maximum = 32
Slowest packet = 4141
Flit latency average = 19.8615
	minimum = 7
	maximum = 34
Slowest flit = 4124
Fragmentation average = 0
	minimum = 0
	maximum = 0
Injected packet rate average = 0.008375
	minimum = 0.004 (at node 6)
	maximum = 0.012 (at node 2)
Accepted packet rate average = 0.008125
	minimum = 0 (at node 0)
	maximum = 0.13 (at node 4)
Injected flit rate average = 0.008375
	minimum = 0.004 (at node 6)
	maximum = 0.012 (at node 2)
Accepted flit rate average= 0.008125
	minimum = 0 (at node 0)
	maximum = 0.13 (at node 4)
Injected packet length average = 1
Accepted packet length average = 1
Total in-flight flits = 6 (6 measured)
latency change    = 0.019433
throughput change = 0.384615
Class 0:
Packet latency average = 19.3916
	minimum = 7
	maximum = 34
Network latency average = 19.3916
	minimum = 7
	maximum = 34
Slowest packet = 4217
Flit latency average = 19.4082
	minimum = 7
	maximum = 34
Slowest flit = 4124
Fragmentation average = 0
	minimum = 0
	maximum = 0
Injected packet rate average = 0.009375
	minimum = 0.004 (at node 7)
	maximum = 0.014 (at node 2)
Accepted packet rate average = 0.0091875
	minimum = 0 (at node 0)
	maximum = 0.147 (at node 4)
Injected flit rate average = 0.009375
	minimum = 0.004 (at node 7)
	maximum = 0.014 (at node 2)
Accepted flit rate average= 0.0091875
	minimum = 0 (at node 0)
	maximum = 0.147 (at node 4)
Injected packet length average = 1
Accepted packet length average = 1
Total in-flight flits = 7 (7 measured)
latency change    = 0.0237655
throughput change = 0.115646
Class 0:
Packet latency average = 19.2643
	minimum = 7
	maximum = 35
Network latency average = 19.2643
	minimum = 7
	maximum = 35
Slowest packet = 4289
Flit latency average = 19.2771
	minimum = 7
	maximum = 35
Slowest flit = 4289
Fragmentation average = 0
	minimum = 0
	maximum = 0
Injected packet rate average = 0.009625
	minimum = 0.00533333 (at node 7)
	maximum = 0.0153333 (at node 8)
Accepted packet rate average = 0.009625
	minimum = 0 (at node 0)
	maximum = 0.154 (at node 4)
Injected flit rate average = 0.009625
	minimum = 0.00533333 (at node 7)
	maximum = 0.0153333 (at node 8)
Accepted flit rate average= 0.009625
	minimum = 0 (at node 0)
	maximum = 0.154 (at node 4)
Injected packet length average = 1
Accepted packet length average = 1
Total in-flight flits = 4 (4 measured)
latency change    = 0.00660762
throughput change = 0.0454545
Class 0:
Packet latency average = 19.3779
	minimum = 7
	maximum = 35
Network latency average = 19.3779
	minimum = 7
	maximum = 35
Slowest packet = 4289
Flit latency average = 19.3859
	minimum = 7
	maximum = 35
Slowest flit = 4289
Fragmentation average = 0
	minimum = 0
	maximum = 0
Injected packet rate average = 0.009625
	minimum = 0.006 (at node 7)
	maximum = 0.013 (at node 8)
Accepted packet rate average = 0.00971875
	minimum = 0 (at node 0)
	maximum = 0.1555 (at node 4)
Injected flit rate average = 0.009625
	minimum = 0.006 (at node 7)
	maximum = 0.013 (at node 8)
Accepted flit rate average= 0.00971875
	minimum = 0 (at node 0)
	maximum = 0.1555 (at node 4)
Injected packet length average = 1
Accepted packet length average = 1
Total in-flight flits = 1 (1 measured)
latency change    = 0.0058589
throughput change = 0.0096463
Class 0:
Packet latency average = 18.8844
	minimum = 7
	maximum = 35
Network latency average = 18.8844
	minimum = 7
	maximum = 35
Slowest packet = 4289
Flit latency average = 18.8955
	minimum = 7
	maximum = 35
Slowest flit = 4289
Fragmentation average = 0
	minimum = 0
	maximum = 0
Injected packet rate average = 0.01005
	minimum = 0.0064 (at node 7)
	maximum = 0.0156 (at node 8)
Accepted packet rate average = 0.01005
	minimum = 0 (at node 0)
	maximum = 0.1608 (at node 4)
Injected flit rate average = 0.01005
	minimum = 0.0064 (at node 7)
	maximum = 0.0156 (at node 8)
Accepted flit rate average= 0.01005
	minimum = 0 (at node 0)
	maximum = 0.1608 (at node 4)
Injected packet length average = 1
Accepted packet length average = 1
Total in-flight flits = 4 (4 measured)
latency change    = 0.0261288
throughput change = 0.0329602
Draining all recorded packets ...
Draining remaining packets ...
Time taken is 4019 cycles
Class 0:
Packet latency average = 19.1972
	minimum = 7
	maximum = 32
Network latency average = 19.1972
	minimum = 7
	maximum = 32
Slowest packet = 4539
Flit latency average = 19.1972
	minimum = 7
	maximum = 32
Slowest flit = 4539
Fragmentation average = 0
	minimum = 0
	maximum = 0
Injected packet rate average = 0.0095
	minimum = 0.004 (at node 2)
	maximum = 0.02 (at node 5)
Accepted packet rate average = 0.008875
	minimum = 0 (at node 0)
	maximum = 0.142 (at node 4)
Injected flit rate average = 0.0095
	minimum = 0.004 (at node 2)
	maximum = 0.02 (at node 5)
Accepted flit rate average= 0.008875
	minimum = 0 (at node 0)
	maximum = 0.142 (at node 4)
Injected packet length average = 1
Accepted packet length average = 1
Total in-flight flits = 5 (0 measured)
latency change    = 1
throughput change = 1
Class 0:
Packet latency average = 19.7651
	minimum = 7
	maximum = 34
Network latency average = 19.7651
	minimum = 7
	maximum = 34
Slowest packet = 4645
Flit latency average = 19.7651
	minimum = 7
	maximum = 34
Slowest flit = 4645
Fragmentation average = 0
	minimum = 0
	maximum = 0
Injected packet rate average = 0.0105625
	minimum = 0.005 (at node 14)
	maximum = 0.02 (at node 5)
Accepted packet rate average = 0.010375
	minimum = 0 (at node 0)
	maximum = 0.166 (at node 4)
Injected flit rate average = 0.0105625
	minimum = 0.005 (at node 14)
	maximum = 0.02 (at node 5)
Accepted flit rate average= 0.010375
	minimum = 0 (at node 0)
	maximum = 0.166 (at node 4)
Injected packet length average = 1
Accepted packet length average = 1
Total in-flight flits = 3 (0 measured)
latency change    = 0.0287314
throughput change = 0.144578
Class 0:
Packet latency average = 20.7536
	minimum = 7
	maximum = 34
Network latency average = 20.7536
	minimum = 7
	maximum = 34
Slowest packet = 4735
Flit latency average = 20.7536
	minimum = 7
	maximum = 34
Slowest flit = 4735
Fragmentation average = 0
	minimum = 0
	maximum = 0
Injected packet rate average = 0.008625
	minimum = 0.002 (at node 0)
	maximum = 0.014 (at node 2)
Accepted packet rate average = 0.008625
	minimum = 0 (at node 0)
	maximum = 0.138 (at node 4)
Injected flit rate average = 0.008625
	minimum = 0.002 (at node 0)
	maximum = 0.014 (at node 2)
Accepted flit rate average= 0.008625
	minimum = 0 (at node 0)
	maximum = 0.138 (at node 4)
Injected packet length average = 1
Accepted packet length average = 1
Total in-flight flits = 3 (0 measured)
latency change    = 0.0476333
throughput change = 0.202899
Warmed up ...Time used is 1500 cycles
Class 0:
Packet latency average = 19.9857
	minimum = 7
	maximum = 33
Network latency average = 19.9857
	minimum = 7
	maximum = 33
Slowest packet = 4811
Flit latency average = 20.137
	minimum = 7
	maximum = 33
Slowest flit = 4811
Fragmentation average = 0
	minimum = 0
	maximum = 0
Injected packet rate average = 0.009125
	minimum = 0.002 (at node 3)
	maximum = 0.018 (at node 15)
Accepted packet rate average = 0.009125
	minimum = 0 (at node 0)
	maximum = 0.146 (at node 4)
Injected flit rate average = 0.009125
	minimum = 0.002 (at node 3)
	maximum = 0.018 (at node 15)
Accepted flit rate average= 0.009125
	minimum = 0 (at node 0)
	maximum = 0.146 (at node 4)
Injected packet length average = 1
Accepted packet length average = 1
Total in-flight flits = 3 (3 measured)
latency change    = 0.0384229
throughput change = 0.0547945
Class 0:
Packet latency average = 19.65
	minimum = 7
	maximum = 33
Network latency average = 19.65
	minimum = 7
	maximum = 33
Slowest packet = 4811
Flit latency average = 19.7239
	minimum = 7
	maximum = 33
Slowest flit = 4811
Fragmentation average = 0
	minimum = 0
	maximum = 0
Injected packet rate average = 0.010125
	minimum = 0.004 (at node 9)
	maximum = 0.019 (at node 0)
Accepted packet rate average = 0.0101875
	minimum = 0 (at node 0)
	maximum = 0.163 (at node 4)
Injected flit rate average = 0.010125
	minimum = 0.004 (at node 9)
	maximum = 0.019 (at node 0)
Accepted flit rate average= 0.0101875
	minimum = 0 (at node 0)
	maximum = 0.163 (at node 4)
Injected packet length average = 1
Accepted packet length average = 1
Total in-flight flits = 2 (2 measured)
latency change    = 0.0170847
throughput change = 0.104294
Class 0:
Packet latency average = 19.73
	minimum = 7
	maximum = 33
Network latency average = 19.73
	minimum = 7
	maximum = 33
Slowest packet = 4811
Flit latency average = 19.7792
	minimum = 7
	maximum = 33
Slowest flit = 4811
Fragmentation average = 0
	minimum = 0
	maximum = 0
Injected packet rate average = 0.00991667
	minimum = 0.006 (at node 3)
	maximum = 0.014 (at node 10)
Accepted packet rate average = 0.01
	minimum = 0 (at node 0)
	maximum = 0.16 (at node 4)
Injected flit rate average = 0.00991667
	minimum = 0.006 (at node 3)
	maximum = 0.014 (at node 10)
Accepted flit rate average= 0.01
	minimum = 0 (at node 0)
	maximum = 0.16 (at node 4)
Injected packet length average = 1
Accepted packet length average = 1
Total in-flight flits = 1 (1 measured)
latency change    = 0.00405261
throughput change = 0.01875
Class 0:
Packet latency average = 20.0279
	minimum = 7
	maximum = 33
Network latency average = 20.0279
	minimum = 7
	maximum = 33
Slowest packet = 4811
Flit latency average = 20.0613
	minimum = 7
	maximum = 33
Slowest flit = 4811
Fragmentation average = 0
	minimum = 0
	maximum = 0
Injected packet rate average = 0.0101563
	minimum = 0.0075 (at node 6)
	maximum = 0.0145 (at node 15)
Accepted packet rate average = 0.0101875
	minimum = 0 (at node 0)
	maximum = 0.163 (at node 4)
Injected flit rate average = 0.0101563
	minimum = 0.0075 (at node 6)
	maximum = 0.0145 (at node 15)
Accepted flit rate average= 0.0101875
	minimum = 0 (at node 0)
	maximum = 0.163 (at node 4)
Injected packet length average = 1
Accepted packet length average = 1
Total in-flight flits = 2 (2 measured)
latency change    = 0.0148746
throughput change = 0.0184049
Class 0:
Packet latency average = 20.04
	minimum = 7
	maximum = 39
Network latency average = 20.04
	minimum = 7
	maximum = 39
Slowest packet = 5093
Flit latency average = 20.067
	minimum = 7
	maximum = 39
Slowest flit = 5093
Fragmentation average = 0
	minimum = 0
	maximum = 0
Injected packet rate average = 0.01005
	minimum = 0.0076 (at node 7)
	maximum = 0.0136 (at node 15)
Accepted packet rate average = 0.010075
	minimum = 0 (at node 0)
	maximum = 0.1612 (at node 4)
Injected flit rate average = 0.01005
	minimum = 0.0076 (at node 7)
	maximum = 0.0136 (at node 15)
Accepted flit rate average= 0.010075
	minimum = 0 (at node 0)
	maximum = 0.1612 (at node 4)
Injected packet length average = 1
Accepted packet length average = 1
Total in-flight flits = 2 (2 measured)
latency change    = 0.0006056
throughput change = 0.0111663
Draining all recorded packets ...
Draining remaining packets ...
Time taken is 4039 cycles
Class 0:
Packet latency average = 20.7606
	minimum = 7
	maximum = 34
Network latency average = 20.7606
	minimum = 7
	maximum = 34
Slowest packet = 5210
Flit latency average = 20.7606
	minimum = 7
	maximum = 34
Slowest flit = 5210
Fragmentation average = 0
	minimum = 0
	maximum = 0
Injected packet rate average = 0.00925
	minimum = 0.004 (at node 5)
	maximum = 0.016 (at node 3)
Accepted packet rate average = 0.008875
	minimum = 0 (at node 0)
	maximum = 0.142 (at node 4)
Injected flit rate average = 0.00925
	minimum = 0.004 (at node 5)
	maximum = 0.016 (at node 3)
Accepted flit rate average= 0.008875
	minimum = 0 (at node 0)
	maximum = 0.142 (at node 4)
Injected packet length average = 1
Accepted packet length average = 1
Total in-flight flits = 3 (0 measured)
latency change    = 1
throughput change = 1
Class 0:
Packet latency average = 20.5192
	minimum = 7
	maximum = 34
Network latency average = 20.5192
	minimum = 7
	maximum = 34
Slowest packet = 5210
Flit latency average = 20.5192
	minimum = 7
	maximum = 34
Slowest flit = 5210
Fragmentation average = 0
	minimum = 0
	maximum = 0
Injected packet rate average = 0.0099375
	minimum = 0.005 (at node 5)
	maximum = 0.017 (at node 12)
Accepted packet rate average = 0.00975
	minimum = 0 (at node 0)
	maximum = 0.156 (at node 4)
Injected flit rate average = 0.0099375
	minimum = 0.005 (at node 5)
	maximum = 0.017 (at node 12)
Accepted flit rate average= 0.00975
	minimum = 0 (at node 0)
	maximum = 0.156 (at node 4)
Injected packet length average = 1
Accepted packet length average = 1
Total in-flight flits = 3 (0 measured)
latency change    = 0.0117613
throughput change = 0.0897436
Class 0:
Packet latency average = 20.16
	minimum = 7
	maximum = 41
Network latency average = 20.16
	minimum = 7
	maximum = 41
Slowest packet = 5344
Flit latency average = 20.16
	minimum = 7
	maximum = 41
Slowest flit = 5344
Fragmentation average = 0
	minimum = 0
	maximum = 0
Injected packet rate average = 0.009
	minimum = 0.004 (at node 5)
	maximum = 0.018 (at node 8)
Accepted packet rate average = 0.009375
	minimum = 0 (at node 0)
	maximum = 0.15 (at node 4)
Injected flit rate average = 0.009
	minimum = 0.004 (at node 5)
	maximum = 0.018 (at node 8)
Accepted flit rate average= 0.009375
	minimum = 0 (at node 0)
	maximum = 0.15 (at node 4)
Injected packet length average = 1
Accepted packet length average = 1
Total in-flight flits = 0 (0 measured)
latency change    = 0.017819
throughput change = 0.04
Warmed up ...Time used is 1500 cycles
Class 0:
Packet latency average = 19.0154
	minimum = 7
	maximum = 32
Network latency average = 19.0154
	minimum = 7
	maximum = 32
Slowest packet = 5410
Flit latency average = 19.0154
	minimum = 7
	maximum = 32
Slowest flit = 5410
Fragmentation average = 0
	minimum = 0
	maximum = 0
Injected packet rate average = 0.008375
	minimum = 0.004 (at node 2)
	maximum = 0.014 (at node 9)
Accepted packet rate average = 0.008125
	minimum = 0 (at node 0)
	maximum = 0.13 (at node 4)
Injected flit rate average = 0.008375
	minimum = 0.004 (at node 2)
	maximum = 0.014 (at node 9)
Accepted flit rate average= 0.008125
	minimum = 0 (at node 0)
	maximum = 0.13 (at node 4)
Injected packet length average = 1
Accepted packet length average = 1
Total in-flight flits = 2 (2 measured)
latency change    = 0.0601942
throughput change = 0.153846
Class 0:
Packet latency average = 18.8201
	minimum = 7
	maximum = 32
Network latency average = 18.8201
	minimum = 7
	maximum = 32
Slowest packet = 5410
Flit latency average = 18.8201
	minimum = 7
	maximum = 32
Slowest flit = 5410
Fragmentation average = 0
	minimum = 0
	maximum = 0
Injected packet rate average = 0.008875
	minimum = 0.004 (at node 11)
	maximum = 0.015 (at node 12)
Accepted packet rate average = 0.0086875
	minimum = 0 (at node 0)
	maximum = 0.139 (at node 4)
Injected flit rate average = 0.008875
	minimum = 0.004 (at node 11)
	maximum = 0.015 (at node 12)
Accepted flit rate average= 0.0086875
	minimum = 0 (at node 0)
	maximum = 0.139 (at node 4)
Injected packet length average = 1
Accepted packet length average = 1
Total in-flight flits = 3 (3 measured)
latency change    = 0.010374
throughput change = 0.0647482
Class 0:
Packet latency average = 19.1659
	minimum = 7
	maximum = 33
Network latency average = 19.1659
	minimum = 7
	maximum = 33
Slowest packet = 5577
Flit latency average = 19.1659
	minimum = 7
	maximum = 33
Slowest flit = 5577
Fragmentation average = 0
	minimum = 0
	maximum = 0
Injected packet rate average = 0.00883333
	minimum = 0.004 (at node 0)
	maximum = 0.0133333 (at node 13)
Accepted packet rate average = 0.00879167
	minimum = 0 (at node 0)
	maximum = 0.140667 (at node 4)
Injected flit rate average = 0.00883333
	minimum = 0.004 (at node 0)
	maximum = 0.0133333 (at node 13)
Accepted flit rate average= 0.00879167
	minimum = 0 (at node 0)
	maximum = 0.140667 (at node 4)
Injected packet length average = 1
Accepted packet length average = 1
Total in-flight flits = 1 (1 measured)
latency change    = 0.018039
throughput change = 0.0118483
Class 0:
Packet latency average = 19.4552
	minimum = 7
	maximum = 33
Network latency average = 19.4552
	minimum = 7
	maximum = 33
Slowest packet = 5577
Flit latency average = 19.4552
	minimum = 7
	maximum = 33
Slowest flit = 5577
Fragmentation average = 0
	minimum = 0
	maximum = 0
Injected packet rate average = 0.00921875
	minimum = 0.0055 (at node 0)
	maximum = 0.0135 (at node 6)
Accepted packet rate average = 0.0090625
	minimum = 0 (at node 0)
	maximum = 0.145 (at node 4)
Injected flit rate average = 0.00921875
	minimum = 0.0055 (at node 0)
	maximum = 0.0135 (at node 6)
Accepted flit rate average= 0.0090625
	minimum = 0 (at node 0)
	maximum = 0.145 (at node 4)
Injected packet length average = 1
Accepted packet length average = 1
Total in-flight flits = 5 (5 measured)
latency change    = 0.0148699
throughput change = 0.0298851
Class 0:
Packet latency average = 19.2139
	minimum = 7
	maximum = 33
Network latency average = 19.2139
	minimum = 7
	maximum = 33
Slowest packet = 5577
Flit latency average = 19.2139
	minimum = 7
	maximum = 33
Slowest flit = 5577
Fragmentation average = 0
	minimum = 0
	maximum = 0
Injected packet rate average = 0.00915
	minimum = 0.0056 (at node 11)
	maximum = 0.0132 (at node 13)
Accepted packet rate average = 0.009
	minimum = 0 (at node 0)
	maximum = 0.144 (at node 4)
Injected flit rate average = 0.00915
	minimum = 0.0056 (at node 11)
	maximum = 0.0132 (at node 13)
Accepted flit rate average= 0.009
	minimum = 0 (at node 0)
	maximum = 0.144 (at node 4)
Injected packet length average = 1
Accepted packet length average = 1
Total in-flight flits = 6 (6 measured)
latency change    = 0.0125578
throughput change = 0.00694444
Draining all recorded packets ...
Draining remaining packets ...
Time taken is 4044 cycles
Class 0:
Packet latency average = 19.869
	minimum = 7
	maximum = 33
Network latency average = 19.869
	minimum = 7
	maximum = 33
Slowest packet = 5801
Flit latency average = 19.869
	minimum = 7
	maximum = 33
Slowest flit = 5801
Fragmentation average = 0
	minimum = 0
	maximum = 0
Injected packet rate average = 0.01075
	minimum = 0.004 (at node 7)
	maximum = 0.02 (at node 4)
Accepted packet rate average = 0.0105
	minimum = 0 (at node 0)
	maximum = 0.168 (at node 4)
Injected flit rate average = 0.01075
	minimum = 0.004 (at node 7)
	maximum = 0.02 (at node 4)
Accepted flit rate average= 0.0105
	minimum = 0 (at node 0)
	maximum = 0.168 (at node 4)
Injected packet length average = 1
Accepted packet length average = 1
Total in-flight flits = 2 (0 measured)
latency change    = 1
throughput change = 1
Class 0:
Packet latency average = 19.5909
	minimum = 7
	maximum = 33
Network latency average = 19.5909
	minimum = 7
	maximum = 33
Slowest packet = 5801
Flit latency average = 19.5909
	minimum = 7
	maximum = 33
Slowest flit = 5801
Fragmentation average = 0
	minimum = 0
	maximum = 0
Injected packet rate average = 0.009875
	minimum = 0.004 (at node 9)
	maximum = 0.015 (at node 12)
Accepted packet rate average = 0.009625
	minimum = 0 (at node 0)
	maximum = 0.154 (at node 4)
Injected flit rate average = 0.009875
	minimum = 0.004 (at node 9)
	maximum = 0.015 (at node 12)
Accepted flit rate average= 0.009625
	minimum = 0 (at node 0)
	maximum = 0.154 (at node 4)
Injected packet length average = 1
Accepted packet length average = 1
Total in-flight flits = 4 (0 measured)
latency change    = 0.0141973
throughput change = 0.0909091
Class 0:
Packet latency average = 19.5663
	minimum = 7
	maximum = 32
Network latency average = 19.5663
	minimum = 7
	maximum = 32
Slowest packet = 5930
Flit latency average = 19.5663
	minimum = 7
	maximum = 32
Slowest flit = 5930
Fragmentation average = 0
	minimum = 0
	maximum = 0
Injected packet rate average = 0.01025
	minimum = 0.002 (at node 7)
	maximum = 0.016 (at node 0)
Accepted packet rate average = 0.010375
	minimum = 0 (at node 0)
	maximum = 0.166 (at node 4)
Injected flit rate average = 0.01025
	minimum = 0.002 (at node 7)
	maximum = 0.016 (at node 0)
Accepted flit rate average= 0.010375
	minimum = 0 (at node 0)
	maximum = 0.166 (at node 4)
Injected packet length average = 1
Accepted packet length average = 1
Total in-flight flits = 3 (0 measured)
latency change    = 0.00125952
throughput change = 0.0722892
Warmed up ...Time used is 1500 cycles
Class 0:
Packet latency average = 19.9167
	minimum = 7
	maximum = 33
Network latency average = 19.9167
	minimum = 7
	maximum = 33
Slowest packet = 6020
Flit latency average = 19.9798
	minimum = 7
	maximum = 33
Slowest flit = 6020
Fragmentation average = 0
	minimum = 0
	maximum = 0
Injected packet rate average = 0.012625
	minimum = 0.004 (at node 0)
	maximum = 0.022 (at node 11)
Accepted packet rate average = 0.012375
	minimum = 0 (at node 0)
	maximum = 0.198 (at node 4)
Injected flit rate average = 0.012625
	minimum = 0.004 (at node 0)
	maximum = 0.022 (at node 11)
Accepted flit rate average= 0.012375
	minimum = 0 (at node 0)
	maximum = 0.198 (at node 4)
Injected packet length average = 1
Accepted packet length average = 1
Total in-flight flits = 5 (5 measured)
latency change    = 0.0175934
throughput change = 0.161616
Class 0:
Packet latency average = 19.843
	minimum = 7
	maximum = 33
Network latency average = 19.843
	minimum = 7
	maximum = 33
Slowest packet = 6020
Flit latency average = 19.88
	minimum = 7
	maximum = 33
Slowest flit = 6020
Fragmentation average = 0
	minimum = 0
	maximum = 0
Injected packet rate average = 0.011125
	minimum = 0.005 (at node 1)
	maximum = 0.017 (at node 6)
Accepted packet rate average = 0.0109375
	minimum = 0 (at node 0)
	maximum = 0.175 (at node 4)
Injected flit rate average = 0.011125
	minimum = 0.005 (at node 1)
	maximum = 0.017 (at node 6)
Accepted flit rate average= 0.0109375
	minimum = 0 (at node 0)
	maximum = 0.175 (at node 4)
Injected packet length average = 1
Accepted packet length average = 1
Total in-flight flits = 6 (6 measured)
latency change    = 0.0037113
throughput change = 0.131429
Class 0:
Packet latency average = 19.814
	minimum = 7
	maximum = 33
Network latency average = 19.814
	minimum = 7
	maximum = 33
Slowest packet = 6020
Flit latency average = 19.8408
	minimum = 7
	maximum = 33
Slowest flit = 6020
Fragmentation average = 0
	minimum = 0
	maximum = 0
Injected packet rate average = 0.0102917
	minimum = 0.006 (at node 13)
	maximum = 0.0166667 (at node 11)
Accepted packet rate average = 0.0102083
	minimum = 0 (at node 0)
	maximum = 0.163333 (at node 4)
Injected flit rate average = 0.0102917
	minimum = 0.006 (at node 13)
	maximum = 0.0166667 (at node 11)
Accepted flit rate average= 0.0102083
	minimum = 0 (at node 0)
	maximum = 0.163333 (at node 4)
Injected packet length average = 1
Accepted packet length average = 1
Total in-flight flits = 5 (5 measured)
latency change    = 0.00146228
throughput change = 0.0714286
Class 0:
Packet latency average = 19.8062
	minimum = 7
	maximum = 33
Network latency average = 19.8062
	minimum = 7
	maximum = 33
Slowest packet = 6020
Flit latency average = 19.8262
	minimum = 7
	maximum = 33
Slowest flit = 6020
Fragmentation average = 0
	minimum = 0
	maximum = 0
Injected packet rate average = 0.0101875
	minimum = 0.0065 (at node 13)
	maximum = 0.014 (at node 11)
Accepted packet rate average = 0.01025
	minimum = 0 (at node 0)
	maximum = 0.164 (at node 4)
Injected flit rate average = 0.0101875
	minimum = 0.0065 (at node 13)
	maximum = 0.014 (at node 11)
Accepted flit rate average= 0.01025
	minimum = 0 (at node 0)
	maximum = 0.164 (at node 4)
Injected packet length average = 1
Accepted packet length average = 1
Total in-flight flits = 1 (1 measured)
latency change    = 0.000398651
throughput change = 0.00406504
Class 0:
Packet latency average = 19.7046
	minimum = 7
	maximum = 33
Network latency average = 19.7046
	minimum = 7
	maximum = 33
Slowest packet = 6020
Flit latency average = 19.7212
	minimum = 7
	maximum = 33
Slowest flit = 6020
Fragmentation average = 0
	minimum = 0
	maximum = 0
Injected packet rate average = 0.010425
	minimum = 0.008 (at node 13)
	maximum = 0.0128 (at node 2)
Accepted packet rate average = 0.0104
	minimum = 0 (at node 0)
	maximum = 0.1664 (at node 4)
Injected flit rate average = 0.010425
	minimum = 0.008 (at node 13)
	maximum = 0.0128 (at node 2)
Accepted flit rate average= 0.0104
	minimum = 0 (at node 0)
	maximum = 0.1664 (at node 4)
Injected packet length average = 1
Accepted packet length average = 1
Total in-flight flits = 4 (4 measured)
latency change    = 0.00515379
throughput change = 0.0144231
Class 0:
Packet latency average = 19.6053
	minimum = 7
	maximum = 33
Network latency average = 19.6053
	minimum = 7
	maximum = 33
Slowest packet = 6020
Flit latency average = 19.6197
	minimum = 7
	maximum = 33
Slowest flit = 6020
Fragmentation average = 0
	minimum = 0
	maximum = 0
Injected packet rate average = 0.0103333
	minimum = 0.00766667 (at node 5)
	maximum = 0.013 (at node 7)
Accepted packet rate average = 0.0103542
	minimum = 0 (at node 0)
	maximum = 0.165667 (at node 4)
Injected flit rate average = 0.0103333
	minimum = 0.00766667 (at node 5)
	maximum = 0.013 (at node 7)
Accepted flit rate average= 0.0103542
	minimum = 0 (at node 0)
	maximum = 0.165667 (at node 4)
Injected packet length average = 1
Accepted packet length average = 1
Total in-flight flits = 2 (2 measured)
latency change    = 0.00506687
throughput change = 0.00442656
Draining all recorded packets ...
Draining remaining packets ...
Time taken is 4533 cycles
Class 0:
Packet latency average = 19.9318
	minimum = 7
	maximum = 32
Network latency average = 19.9318
	minimum = 7
	maximum = 32
Slowest packet = 6519
Flit latency average = 19.9318
	minimum = 7
	maximum = 32
Slowest flit = 6519
Fragmentation average = 0
	minimum = 0
	maximum = 0
Injected packet rate average = 0.01125
	minimum = 0.002 (at node 6)
	maximum = 0.02 (at node 2)
Accepted packet rate average = 0.011
	minimum = 0 (at node 0)
	maximum = 0.176 (at node 4)
Injected flit rate average = 0.01125
	minimum = 0.002 (at node 6)
	maximum = 0.02 (at node 2)
Accepted flit rate average= 0.011
	minimum = 0 (at node 0)
	maximum = 0.176 (at node 4)
Injected packet length average = 1
Accepted packet length average = 1
Total in-flight flits = 2 (0 measured)
latency change    = 1
throughput change = 1
Class 0:
Packet latency average = 19.5556
	minimum = 7
	maximum = 34
Network latency average = 19.5556
	minimum = 7
	maximum = 34
Slowest packet = 6626
Flit latency average = 19.5556
	minimum = 7
	maximum = 34
Slowest flit = 6626
Fragmentation average = 0
	minimum = 0
	maximum = 0
Injected packet rate average = 0.0108125
	minimum = 0.005 (at node 6)
	maximum = 0.016 (at node 2)
Accepted packet rate average = 0.0106875
	minimum = 0 (at node 0)
	maximum = 0.171 (at node 4)
Injected flit rate average = 0.0108125
	minimum = 0.005 (at node 6)
	maximum = 0.016 (at node 2)
Accepted flit rate average= 0.0106875
	minimum = 0 (at node 0)
	maximum = 0.171 (at node 4)
Injected packet length average = 1
Accepted packet length average = 1
Total in-flight flits = 2 (0 measured)
latency change    = 0.0192407
throughput change = 0.0292398
Class 0:
Packet latency average = 19.6761
	minimum = 7
	maximum = 32
Network latency average = 19.6761
	minimum = 7
	maximum = 32
Slowest packet = 6731
Flit latency average = 19.6761
	minimum = 7
	maximum = 32
Slowest flit = 6731
Fragmentation average = 0
	minimum = 0
	maximum = 0
Injected packet rate average = 0.009375
	minimum = 0.004 (at node 0)
	maximum = 0.014 (at node 12)
Accepted packet rate average = 0.008875
	minimum = 0 (at node 0)
	maximum = 0.142 (at node 4)
Injected flit rate average = 0.009375
	minimum = 0.004 (at node 0)
	maximum = 0.014 (at node 12)
Accepted flit rate average= 0.008875
	minimum = 0 (at node 0)
	maximum = 0.142 (at node 4)
Injected packet length average = 1
Accepted packet length average = 1
Total in-flight flits = 6 (0 measured)
latency change    = 0.00612423
throughput change = 0.204225
Warmed up ...Time used is 1500 cycles
Class 0:
Packet latency average = 19.2308
	minimum = 7
	maximum = 34
Network latency average = 19.2308
	minimum = 7
	maximum = 34
Slowest packet = 6802
Flit latency average = 19.6786
	minimum = 7
	maximum = 34
Slowest flit = 6802
Fragmentation average = 0
	minimum = 0
	maximum = 0
Injected packet rate average = 0.0105
	minimum = 0.002 (at node 13)
	maximum = 0.02 (at node 4)
Accepted packet rate average = 0.0105
	minimum = 0 (at node 0)
	maximum = 0.168 (at node 4)
Injected flit rate average = 0.0105
	minimum = 0.002 (at node 13)
	maximum = 0.02 (at node 4)
Accepted flit rate average= 0.0105
	minimum = 0 (at node 0)
	maximum = 0.168 (at node 4)
Injected packet length average = 1
Accepted packet length average = 1
Total in-flight flits = 6 (6 measured)
latency change    = 0.0231549
throughput change = 0.154762
Class 0:
Packet latency average = 19.7895
	minimum = 7
	maximum = 34
Network latency average = 19.7895
	minimum = 7
	maximum = 34
Slowest packet = 6802
Flit latency average = 20.0063
	minimum = 7
	maximum = 34
Slowest flit = 6802
Fragmentation average = 0
	minimum = 0
	maximum = 0
Injected packet rate average = 0.0096875
	minimum = 0.005 (at node 13)
	maximum = 0.014 (at node 4)
Accepted packet rate average = 0.009875
	minimum = 0 (at node 0)
	maximum = 0.158 (at node 4)
Injected flit rate average = 0.0096875
	minimum = 0.005 (at node 13)
	maximum = 0.014 (at node 4)
Accepted flit rate average= 0.009875
	minimum = 0 (at node 0)
	maximum = 0.158 (at node 4)
Injected packet length average = 1
Accepted packet length average = 1
Total in-flight flits = 3 (3 measured)
latency change    = 0.0282324
throughput change = 0.0632911
Class 0:
Packet latency average = 19.7292
	minimum = 7
	maximum = 34
Network latency average = 19.7292
	minimum = 7
	maximum = 34
Slowest packet = 6802
Flit latency average = 19.8699
	minimum = 7
	maximum = 34
Slowest flit = 6802
Fragmentation average = 0
	minimum = 0
	maximum = 0
Injected packet rate average = 0.0100833
	minimum = 0.00666667 (at node 2)
	maximum = 0.0146667 (at node 4)
Accepted packet rate average = 0.01025
	minimum = 0 (at node 0)
	maximum = 0.164 (at node 4)
Injected flit rate average = 0.0100833
	minimum = 0.00666667 (at node 2)
	maximum = 0.0146667 (at node 4)
Accepted flit rate average= 0.01025
	minimum = 0 (at node 0)
	maximum = 0.164 (at node 4)
Injected packet length average = 1
Accepted packet length average = 1
Total in-flight flits = 2 (2 measured)
latency change    = 0.00305674
throughput change = 0.0365854
Class 0:
Packet latency average = 19.7247
	minimum = 7
	maximum = 34
Network latency average = 19.7247
	minimum = 7
	maximum = 34
Slowest packet = 6802
Flit latency average = 19.8323
	minimum = 7
	maximum = 34
Slowest flit = 6802
Fragmentation average = 0
	minimum = 0
	maximum = 0
Injected packet rate average = 0.01
	minimum = 0.007 (at node 9)
	maximum = 0.0135 (at node 14)
Accepted packet rate average = 0.0100625
	minimum = 0 (at node 0)
	maximum = 0.161 (at node 4)
Injected flit rate average = 0.01
	minimum = 0.007 (at node 9)
	maximum = 0.0135 (at node 14)
Accepted flit rate average= 0.0100625
	minimum = 0 (at node 0)
	maximum = 0.161 (at node 4)
Injected packet length average = 1
Accepted packet length average = 1
Total in-flight flits = 4 (4 measured)
latency change    = 0.000227285
throughput change = 0.0186335
Class 0:
Packet latency average = 19.9035
	minimum = 7
	maximum = 34
Network latency average = 19.9035
	minimum = 7
	maximum = 34
Slowest packet = 6802
Flit latency average = 19.9854
	minimum = 7
	maximum = 34
Slowest flit = 6802
Fragmentation average = 0
	minimum = 0
	maximum = 0
Injected packet rate average = 0.01015
	minimum = 0.0072 (at node 12)
	maximum = 0.0148 (at node 14)
Accepted packet rate average = 0.01025
	minimum = 0 (at node 0)
	maximum = 0.164 (at node 4)
Injected flit rate average = 0.01015
	minimum = 0.0072 (at node 12)
	maximum = 0.0148 (at node 14)
Accepted flit rate average= 0.01025
	minimum = 0 (at node 0)
	maximum = 0.164 (at node 4)
Injected packet length average = 1
Accepted packet length average = 1
Total in-flight flits = 2 (2 measured)
latency change    = 0.00898245
throughput change = 0.0182927
Draining all recorded packets ...
Draining remaining packets ...
Time taken is 4020 cycles
Class 0:
Packet latency average = 20.9091
	minimum = 7
	maximum = 32
Network latency average = 20.9091
	minimum = 7
	maximum = 32
Slowest packet = 7165
Flit latency average = 20.9091
	minimum = 7
	maximum = 32
Slowest flit = 7165
Fragmentation average = 0
	minimum = 0
	maximum = 0
Injected packet rate average = 0.011625
	minimum = 0.004 (at node 2)
	maximum = 0.02 (at node 3)
Accepted packet rate average = 0.011
	minimum = 0 (at node 0)
	maximum = 0.176 (at node 4)
Injected flit rate average = 0.011625
	minimum = 0.004 (at node 2)
	maximum = 0.02 (at node 3)
Accepted flit rate average= 0.011
	minimum = 0 (at node 0)
	maximum = 0.176 (at node 4)
Injected packet length average = 1
Accepted packet length average = 1
Total in-flight flits = 5 (0 measured)
latency change    = 1
throughput change = 1
Class 0:
Packet latency average = 20.6859
	minimum = 7
	maximum = 32
Network latency average = 20.6859
	minimum = 7
	maximum = 32
Slowest packet = 7165
Flit latency average = 20.6859
	minimum = 7
	maximum = 32
Slowest flit = 7165
Fragmentation average = 0
	minimum = 0
	maximum = 0
Injected packet rate average = 0.0123125
	minimum = 0.004 (at node 12)
	maximum = 0.021 (at node 15)
Accepted packet rate average = 0.0119375
	minimum = 0 (at node 0)
	maximum = 0.191 (at node 4)
Injected flit rate average = 0.0123125
	minimum = 0.004 (at node 12)
	maximum = 0.021 (at node 15)
Accepted flit rate average= 0.0119375
	minimum = 0 (at node 0)
	maximum = 0.191 (at node 4)
Injected packet length average = 1
Accepted packet length average = 1
Total in-flight flits = 6 (0 measured)
latency change    = 0.0107913
throughput change = 0.078534
Class 0:
Packet latency average = 20.7
	minimum = 7
	maximum = 32
Network latency average = 20.7
	minimum = 7
	maximum = 32
Slowest packet = 7353
Flit latency average = 20.7
	minimum = 7
	maximum = 32
Slowest flit = 7353
Fragmentation average = 0
	minimum = 0
	maximum = 0
Injected packet rate average = 0.0095
	minimum = 0.002 (at node 8)
	maximum = 0.018 (at node 7)
Accepted packet rate average = 0.01
	minimum = 0 (at node 0)
	maximum = 0.16 (at node 4)
Injected flit rate average = 0.0095
	minimum = 0.002 (at node 8)
	maximum = 0.018 (at node 7)
Accepted flit rate average= 0.01
	minimum = 0 (at node 0)
	maximum = 0.16 (at node 4)
Injected packet length average = 1
Accepted packet length average = 1
Total in-flight flits = 2 (0 measured)
latency change    = 0.000682905
throughput change = 0.19375
Warmed up ...Time used is 1500 cycles
Class 0:
Packet latency average = 19.4478
	minimum = 7
	maximum = 33
Network latency average = 19.4478
	minimum = 7
	maximum = 33
Slowest packet = 7468
Flit latency average = 19.6667
	minimum = 7
	maximum = 33
Slowest flit = 7468
Fragmentation average = 0
	minimum = 0
	maximum = 0
Injected packet rate average = 0.008875
	minimum = 0.004 (at node 5)
	maximum = 0.014 (at node 4)
Accepted packet rate average = 0.008625
	minimum = 0 (at node 0)
	maximum = 0.138 (at node 4)
Injected flit rate average = 0.008875
	minimum = 0.004 (at node 5)
	maximum = 0.014 (at node 4)
Accepted flit rate average= 0.008625
	minimum = 0 (at node 0)
	maximum = 0.138 (at node 4)
Injected packet length average = 1
[...]
Accepted packet length average = 1
Total in-flight flits = 1 (1 measured)
latency change    = 0.0222997
throughput change = 0.01417
Class 0:
Packet latency average = 19.3302
	minimum = 7
	maximum = 34
Network latency average = 19.3302
	minimum = 7
	maximum = 34
Slowest packet = 30477
Flit latency average = 19.3242
	minimum = 7
	maximum = 34
Slowest flit = 30477
Fragmentation average = 0
	minimum = 0
	maximum = 0
Injected packet rate average = 0.01025
	minimum = 0.0045 (at node 8)
	maximum = 0.0145 (at node 12)
Accepted packet rate average = 0.0102188
	minimum = 0 (at node 0)
	maximum = 0.1635 (at node 4)
Injected flit rate average = 0.01025
	minimum = 0.0045 (at node 8)
	maximum = 0.0145 (at node 12)
Accepted flit rate average= 0.0102188
	minimum = 0 (at node 0)
	maximum = 0.1635 (at node 4)
Injected packet length average = 1
Accepted packet length average = 1
Total in-flight flits = 4 (4 measured)
latency change    = 0.00563549
throughput change = 0.00713558
Draining all recorded packets ...
Draining remaining packets ...
Time taken is 3541 cycles
Class 0:
Packet latency average = 18.6462
	minimum = 7
	maximum = 27
Network latency average = 18.6462
	minimum = 7
	maximum = 27
Slowest packet = 30625
Flit latency average = 18.6462
	minimum = 7
	maximum = 27
Slowest flit = 30625
Fragmentation average = 0
	minimum = 0
	maximum = 0
Injected packet rate average = 0.00825
	minimum = 0 (at node 15)
	maximum = 0.014 (at node 8)
Accepted packet rate average = 0.008125
	minimum = 0 (at node 0)
	maximum = 0.13 (at node 4)
Injected flit rate average = 0.00825
	minimum = 0 (at node 15)
	maximum = 0.014 (at node 8)
Accepted flit rate average= 0.008125
	minimum = 0 (at node 0)
	maximum = 0.13 (at node 4)
Injected packet length average = 1
Accepted packet length average = 1
Total in-flight flits = 1 (0 measured)
latency change    = 1
throughput change = 1
Class 0:
Packet latency average = 19.3788
	minimum = 7
	maximum = 32
Network latency average = 19.3788
	minimum = 7
	maximum = 32
Slowest packet = 30702
Flit latency average = 19.3788
	minimum = 7
	maximum = 32
Slowest flit = 30702
Fragmentation average = 0
	minimum = 0
	maximum = 0
Injected packet rate average = 0.0085625
	minimum = 0.002 (at node 15)
	maximum = 0.013 (at node 7)
Accepted packet rate average = 0.00825
	minimum = 0 (at node 0)
	maximum = 0.132 (at node 4)
Injected flit rate average = 0.0085625
	minimum = 0.002 (at node 15)
	maximum = 0.013 (at node 7)
Accepted flit rate average= 0.00825
	minimum = 0 (at node 0)
	maximum = 0.132 (at node 4)
Injected packet length average = 1
Accepted packet length average = 1
Total in-flight flits = 5 (0 measured)
latency change    = 0.037806
throughput change = 0.0151515
Class 0:
Packet latency average = 18.2344
	minimum = 7
	maximum = 32
Network latency average = 18.2344
	minimum = 7
	maximum = 32
Slowest packet = 30773
Flit latency average = 18.2344
	minimum = 7
	maximum = 32
Slowest flit = 30773
Fragmentation average = 0
	minimum = 0
	maximum = 0
Injected packet rate average = 0.007625
	minimum = 0.002 (at node 3)
	maximum = 0.018 (at node 4)
Accepted packet rate average = 0.008
	minimum = 0 (at node 0)
	maximum = 0.128 (at node 4)
Injected flit rate average = 0.007625
	minimum = 0.002 (at node 3)
	maximum = 0.018 (at node 4)
Accepted flit rate average= 0.008
	minimum = 0 (at node 0)
	maximum = 0.128 (at node 4)
Injected packet length average = 1
Accepted packet length average = 1
Total in-flight flits = 2 (0 measured)
latency change    = 0.0627613
throughput change = 0.03125
Warmed up ...Time used is 1500 cycles
Class 0:
Packet latency average = 20.1795
	minimum = 7
	maximum = 32
Network latency average = 20.1795
	minimum = 7
	maximum = 32
Slowest packet = 30823
Flit latency average = 20.0375
	minimum = 7
	maximum = 32
Slowest flit = 30823
Fragmentation average = 0
	minimum = 0
	maximum = 0
Injected packet rate average = 0.010125
	minimum = 0 (at node 9)
	maximum = 0.03 (at node 14)
Accepted packet rate average = 0.01
	minimum = 0 (at node 0)
	maximum = 0.16 (at node 4)
Injected flit rate average = 0.010125
	minimum = 0 (at node 9)
	maximum = 0.03 (at node 14)
Accepted flit rate average= 0.01
	minimum = 0 (at node 0)
	maximum = 0.16 (at node 4)
Injected packet length average = 1
Accepted packet length average = 1
Total in-flight flits = 3 (3 measured)
latency change    = 0.0963906
throughput change = 0.2
Class 0:
Packet latency average = 20.4276
	minimum = 7
	maximum = 32
Network latency average = 20.4276
	minimum = 7
	maximum = 32
Slowest packet = 30823
Flit latency average = 20.3506
	minimum = 7
	maximum = 32
Slowest flit = 30823
Fragmentation average = 0
	minimum = 0
	maximum = 0
Injected packet rate average = 0.0096875
	minimum = 0.005 (at node 5)
	maximum = 0.02 (at node 14)
Accepted packet rate average = 0.009625
	minimum = 0 (at node 0)
	maximum = 0.154 (at node 4)
Injected flit rate average = 0.0096875
	minimum = 0.005 (at node 5)
	maximum = 0.02 (at node 14)
Accepted flit rate average= 0.009625
	minimum = 0 (at node 0)
	maximum = 0.154 (at node 4)
Injected packet length average = 1
Accepted packet length average = 1
Total in-flight flits = 3 (3 measured)
latency change    = 0.0121475
throughput change = 0.038961
Class 0:
Packet latency average = 20.0442
	minimum = 7
	maximum = 32
Network latency average = 20.0442
	minimum = 7
	maximum = 32
Slowest packet = 30823
Flit latency average = 19.9956
	minimum = 7
	maximum = 32
Slowest flit = 30823
Fragmentation average = 0
	minimum = 0
	maximum = 0
Injected packet rate average = 0.00958333
	minimum = 0.006 (at node 3)
	maximum = 0.016 (at node 14)
Accepted packet rate average = 0.0095
	minimum = 0 (at node 0)
	maximum = 0.152 (at node 4)
Injected flit rate average = 0.00958333
	minimum = 0.006 (at node 3)
	maximum = 0.016 (at node 14)
Accepted flit rate average= 0.0095
	minimum = 0 (at node 0)
	maximum = 0.152 (at node 4)
Injected packet length average = 1
Accepted packet length average = 1
Total in-flight flits = 4 (4 measured)
latency change    = 0.0191269
throughput change = 0.0131579
Class 0:
Packet latency average = 19.8742
	minimum = 7
	maximum = 32
Network latency average = 19.8742
	minimum = 7
	maximum = 32
Slowest packet = 30823
Flit latency average = 19.8388
	minimum = 7
	maximum = 32
Slowest flit = 30823
Fragmentation average = 0
	minimum = 0
	maximum = 0
Injected packet rate average = 0.0095625
	minimum = 0.0065 (at node 3)
	maximum = 0.0145 (at node 2)
Accepted packet rate average = 0.0095
	minimum = 0 (at node 0)
	maximum = 0.152 (at node 4)
Injected flit rate average = 0.0095625
	minimum = 0.0065 (at node 3)
	maximum = 0.0145 (at node 2)
Accepted flit rate average= 0.0095
	minimum = 0 (at node 0)
	maximum = 0.152 (at node 4)
Injected packet length average = 1
Accepted packet length average = 1
Total in-flight flits = 4 (4 measured)
latency change    = 0.00855762
throughput change = 0
Draining all recorded packets ...
Draining remaining packets ...
Time taken is 3554 cycles
Class 0:
Packet latency average = 19.9863
	minimum = 7
	maximum = 32
Network latency average = 19.9863
	minimum = 7
	maximum = 32
Slowest packet = 31140
Flit latency average = 19.9863
	minimum = 7
	maximum = 32
Slowest flit = 31140
Fragmentation average = 0
	minimum = 0
	maximum = 0
Injected packet rate average = 0.009375
	minimum = 0.004 (at node 0)
	maximum = 0.02 (at node 8)
Accepted packet rate average = 0.009125
	minimum = 0 (at node 0)
	maximum = 0.146 (at node 4)
Injected flit rate average = 0.009375
	minimum = 0.004 (at node 0)
	maximum = 0.02 (at node 8)
Accepted flit rate average= 0.009125
	minimum = 0 (at node 0)
	maximum = 0.146 (at node 4)
Injected packet length average = 1
Accepted packet length average = 1
Total in-flight flits = 2 (0 measured)
latency change    = 1
throughput change = 1
Class 0:
Packet latency average = 19.4843
	minimum = 7
	maximum = 32
Network latency average = 19.4843
	minimum = 7
	maximum = 32
Slowest packet = 31140
Flit latency average = 19.4843
	minimum = 7
	maximum = 32
Slowest flit = 31140
Fragmentation average = 0
	minimum = 0
	maximum = 0
Injected packet rate average = 0.0101875
	minimum = 0.006 (at node 15)
	maximum = 0.015 (at node 14)
Accepted packet rate average = 0.0099375
	minimum = 0 (at node 0)
	maximum = 0.159 (at node 4)
Injected flit rate average = 0.0101875
	minimum = 0.006 (at node 15)
	maximum = 0.015 (at node 14)
Accepted flit rate average= 0.0099375
	minimum = 0 (at node 0)
	maximum = 0.159 (at node 4)
Injected packet length average = 1
Accepted packet length average = 1
Total in-flight flits = 4 (0 measured)
latency change    = 0.0257656
throughput change = 0.081761
Class 0:
Packet latency average = 19.087
	minimum = 7
	maximum = 32
Network latency average = 19.087
	minimum = 7
	maximum = 32
Slowest packet = 31307
Flit latency average = 19.087
	minimum = 7
	maximum = 32
Slowest flit = 31307
Fragmentation average = 0
	minimum = 0
	maximum = 0
Injected packet rate average = 0.011625
	minimum = 0.004 (at node 2)
	maximum = 0.022 (at node 10)
Accepted packet rate average = 0.0115
	minimum = 0 (at node 0)
	maximum = 0.184 (at node 4)
Injected flit rate average = 0.011625
	minimum = 0.004 (at node 2)
	maximum = 0.022 (at node 10)
Accepted flit rate average= 0.0115
	minimum = 0 (at node 0)
	maximum = 0.184 (at node 4)
Injected packet length average = 1
Accepted packet length average = 1
Total in-flight flits = 5 (0 measured)
latency change    = 0.0208163
throughput change = 0.13587
Warmed up ...Time used is 1500 cycles
Class 0:
Packet latency average = 19.0154
	minimum = 7
	maximum = 32
Network latency average = 19.0154
	minimum = 7
	maximum = 32
Slowest packet = 31426
Flit latency average = 19.1143
	minimum = 7
	maximum = 32
Slowest flit = 31426
Fragmentation average = 0
	minimum = 0
	maximum = 0
Injected packet rate average = 0.008375
	minimum = 0.002 (at node 14)
	maximum = 0.014 (at node 0)
Accepted packet rate average = 0.00875
	minimum = 0 (at node 0)
	maximum = 0.14 (at node 4)
Injected flit rate average = 0.008375
	minimum = 0.002 (at node 14)
	maximum = 0.014 (at node 0)
Accepted flit rate average= 0.00875
	minimum = 0 (at node 0)
	maximum = 0.14 (at node 4)
Injected packet length average = 1
Accepted packet length average = 1
Total in-flight flits = 2 (2 measured)
latency change    = 0.00376389
throughput change = 0.314286
Class 0:
Packet latency average = 19.8212
	minimum = 7
	maximum = 32
Network latency average = 19.8212
	minimum = 7
	maximum = 32
Slowest packet = 31426
Flit latency average = 19.8397
	minimum = 7
	maximum = 32
Slowest flit = 31426
Fragmentation average = 0
	minimum = 0
	maximum = 0
Injected packet rate average = 0.0095625
	minimum = 0.004 (at node 12)
	maximum = 0.022 (at node 3)
Accepted packet rate average = 0.00975
	minimum = 0 (at node 0)
	maximum = 0.156 (at node 4)
Injected flit rate average = 0.0095625
	minimum = 0.004 (at node 12)
	maximum = 0.022 (at node 3)
Accepted flit rate average= 0.00975
	minimum = 0 (at node 0)
	maximum = 0.156 (at node 4)
Injected packet length average = 1
Accepted packet length average = 1
Total in-flight flits = 2 (2 measured)
latency change    = 0.0406538
throughput change = 0.102564
Class 0:
Packet latency average = 20.1336
	minimum = 7
	maximum = 41
Network latency average = 20.1336
	minimum = 7
	maximum = 41
Slowest packet = 31549
Flit latency average = 20.1392
	minimum = 7
	maximum = 41
Slowest flit = 31549
Fragmentation average = 0
	minimum = 0
	maximum = 0
Injected packet rate average = 0.00995833
	minimum = 0.00666667 (at node 1)
	maximum = 0.018 (at node 3)
Accepted packet rate average = 0.009875
	minimum = 0 (at node 0)
	maximum = 0.158 (at node 4)
Injected flit rate average = 0.00995833
	minimum = 0.00666667 (at node 1)
	maximum = 0.018 (at node 3)
Accepted flit rate average= 0.009875
	minimum = 0 (at node 0)
	maximum = 0.158 (at node 4)
Injected packet length average = 1
Accepted packet length average = 1
Total in-flight flits = 7 (7 measured)
latency change    = 0.0155178
throughput change = 0.0126582
Class 0:
Packet latency average = 20.0295
	minimum = 7
	maximum = 41
Network latency average = 20.0295
	minimum = 7
	maximum = 41
Slowest packet = 31549
Flit latency average = 20.0355
	minimum = 7
	maximum = 41
Slowest flit = 31549
Fragmentation average = 0
	minimum = 0
	maximum = 0
Injected packet rate average = 0.00959375
	minimum = 0.0055 (at node 12)
	maximum = 0.017 (at node 3)
Accepted packet rate average = 0.0096875
	minimum = 0 (at node 0)
	maximum = 0.155 (at node 4)
Injected flit rate average = 0.00959375
	minimum = 0.0055 (at node 12)
	maximum = 0.017 (at node 3)
Accepted flit rate average= 0.0096875
	minimum = 0 (at node 0)
	maximum = 0.155 (at node 4)
Injected packet length average = 1
Accepted packet length average = 1
Total in-flight flits = 2 (2 measured)
latency change    = 0.00519796
throughput change = 0.0193548
Class 0:
Packet latency average = 19.6338
	minimum = 7
	maximum = 41
Network latency average = 19.6338
	minimum = 7
	maximum = 41
Slowest packet = 31549
Flit latency average = 19.6436
	minimum = 7
	maximum = 41
Slowest flit = 31549
Fragmentation average = 0
	minimum = 0
	maximum = 0
Injected packet rate average = 0.00965
	minimum = 0.0064 (at node 12)
	maximum = 0.0152 (at node 3)
Accepted packet rate average = 0.00975
	minimum = 0 (at node 0)
	maximum = 0.156 (at node 4)
Injected flit rate average = 0.00965
	minimum = 0.0064 (at node 12)
	maximum = 0.0152 (at node 3)
Accepted flit rate average= 0.00975
	minimum = 0 (at node 0)
	maximum = 0.156 (at node 4)
Injected packet length average = 1
Accepted packet length average = 1
Total in-flight flits = 1 (1 measured)
latency change    = 0.0201562
throughput change = 0.00641026
Draining all recorded packets ...
Draining remaining packets ...
Time taken is 4037 cycles
Class 0:
Packet latency average = 18.8406
	minimum = 7
	maximum = 32
Network latency average = 18.8406
	minimum = 7
	maximum = 32
Slowest packet = 31832
Flit latency average = 18.8406
	minimum = 7
	maximum = 32
Slowest flit = 31832
Fragmentation average = 0
	minimum = 0
	maximum = 0
Injected packet rate average = 0.00875
	minimum = 0.002 (at node 7)
	maximum = 0.018 (at node 5)
Accepted packet rate average = 0.008625
	minimum = 0 (at node 0)
	maximum = 0.138 (at node 4)
Injected flit rate average = 0.00875
	minimum = 0.002 (at node 7)
	maximum = 0.018 (at node 5)
Accepted flit rate average= 0.008625
	minimum = 0 (at node 0)
	maximum = 0.138 (at node 4)
Injected packet length average = 1
Accepted packet length average = 1
Total in-flight flits = 1 (0 measured)
latency change    = 1
throughput change = 1
Class 0:
Packet latency average = 19.3094
	minimum = 7
	maximum = 32
Network latency average = 19.3094
	minimum = 7
	maximum = 32
Slowest packet = 31832
Flit latency average = 19.3094
	minimum = 7
	maximum = 32
Slowest flit = 31832
Fragmentation average = 0
	minimum = 0
	maximum = 0
Injected packet rate average = 0.00875
	minimum = 0.002 (at node 1)
	maximum = 0.014 (at node 5)
Accepted packet rate average = 0.0086875
	minimum = 0 (at node 0)
	maximum = 0.139 (at node 4)
Injected flit rate average = 0.00875
	minimum = 0.002 (at node 1)
	maximum = 0.014 (at node 5)
Accepted flit rate average= 0.0086875
	minimum = 0 (at node 0)
	maximum = 0.139 (at node 4)
Injected packet length average = 1
Accepted packet length average = 1
Total in-flight flits = 1 (0 measured)
latency change    = 0.024277
throughput change = 0.00719424
Class 0:
Packet latency average = 19.9167
	minimum = 7
	maximum = 32
Network latency average = 19.9167
	minimum = 7
	maximum = 32
Slowest packet = 31938
Flit latency average = 19.9167
	minimum = 7
	maximum = 32
Slowest flit = 31938
Fragmentation average = 0
	minimum = 0
	maximum = 0
Injected packet rate average = 0.009
	minimum = 0.002 (at node 0)
	maximum = 0.018 (at node 10)
Accepted packet rate average = 0.009
	minimum = 0 (at node 0)
	maximum = 0.144 (at node 4)
Injected flit rate average = 0.009
	minimum = 0.002 (at node 0)
	maximum = 0.018 (at node 10)
Accepted flit rate average= 0.009
	minimum = 0 (at node 0)
	maximum = 0.144 (at node 4)
Injected packet length average = 1
Accepted packet length average = 1
Total in-flight flits = 1 (0 measured)
latency change    = 0.0304928
throughput change = 0.0347222
Warmed up ...Time used is 1500 cycles
Class 0:
Packet latency average = 19.2027
	minimum = 7
	maximum = 32
Network latency average = 19.2027
	minimum = 7
	maximum = 32
Slowest packet = 32003
Flit latency average = 19.2533
	minimum = 7
	maximum = 32
Slowest flit = 32003
Fragmentation average = 0
	minimum = 0
	maximum = 0
Injected packet rate average = 0.009375
	minimum = 0.002 (at node 11)
	maximum = 0.014 (at node 0)
Accepted packet rate average = 0.009375
	minimum = 0 (at node 0)
	maximum = 0.15 (at node 4)
Injected flit rate average = 0.009375
	minimum = 0.002 (at node 11)
	maximum = 0.014 (at node 0)
Accepted flit rate average= 0.009375
	minimum = 0 (at node 0)
	maximum = 0.15 (at node 4)
Injected packet length average = 1
Accepted packet length average = 1
Total in-flight flits = 1 (1 measured)
latency change    = 0.0371804
throughput change = 0.04
Class 0:
Packet latency average = 19.34
	minimum = 7
	maximum = 32
Network latency average = 19.34
	minimum = 7
	maximum = 32
Slowest packet = 32003
Flit latency average = 19.3642
	minimum = 7
	maximum = 32
Slowest flit = 32003
Fragmentation average = 0
	minimum = 0
	maximum = 0
Injected packet rate average = 0.009625
	minimum = 0.005 (at node 13)
	maximum = 0.013 (at node 10)
Accepted packet rate average = 0.0094375
	minimum = 0 (at node 0)
	maximum = 0.151 (at node 4)
Injected flit rate average = 0.009625
	minimum = 0.005 (at node 13)
	maximum = 0.013 (at node 10)
Accepted flit rate average= 0.0094375
	minimum = 0 (at node 0)
	maximum = 0.151 (at node 4)
Injected packet length average = 1
Accepted packet length average = 1
Total in-flight flits = 4 (4 measured)
latency change    = 0.00709914
throughput change = 0.00662252
Class 0:
Packet latency average = 19.5778
	minimum = 7
	maximum = 32
Network latency average = 19.5778
	minimum = 7
	maximum = 32
Slowest packet = 32003
Flit latency average = 19.5929
	minimum = 7
	maximum = 32
Slowest flit = 32003
Fragmentation average = 0
	minimum = 0
	maximum = 0
Injected packet rate average = 0.00958333
	minimum = 0.00666667 (at node 11)
	maximum = 0.0126667 (at node 10)
Accepted packet rate average = 0.00941667
	minimum = 0 (at node 0)
	maximum = 0.150667 (at node 4)
Injected flit rate average = 0.00958333
	minimum = 0.00666667 (at node 11)
	maximum = 0.0126667 (at node 10)
Accepted flit rate average= 0.00941667
	minimum = 0 (at node 0)
	maximum = 0.150667 (at node 4)
Injected packet length average = 1
Accepted packet length average = 1
Total in-flight flits = 5 (5 measured)
latency change    = 0.0121453
throughput change = 0.00221239
Draining all recorded packets ...
Draining remaining packets ...
Time taken is 3039 cycles
====== Overall Traffic Statistics ======
====== Traffic class 0 ======
Packet latency average = 19.6538 (50 samples)
	minimum = 7 (50 samples)
	maximum = 34.64 (50 samples)
Network latency average = 19.6538 (50 samples)
	minimum = 7 (50 samples)
	maximum = 34.64 (50 samples)
Flit latency average = 19.6884 (50 samples)
	minimum = 7 (50 samples)
	maximum = 34.64 (50 samples)
Fragmentation average = 0 (50 samples)
	minimum = 0 (50 samples)
	maximum = 0 (50 samples)
Injected packet rate average = 0.00995101 (50 samples)
	minimum = 0.00665476 (50 samples)
	maximum = 0.013779 (50 samples)
Accepted packet rate average = 0.00995364 (50 samples)
	minimum = 0 (50 samples)
	maximum = 0.159258 (50 samples)
Injected flit rate average = 0.00995101 (50 samples)
	minimum = 0.00665476 (50 samples)
	maximum = 0.013779 (50 samples)
Accepted flit rate average = 0.00995364 (50 samples)
	minimum = 0 (50 samples)
	maximum = 0.159258 (50 samples)
Injected packet size average = 1 (50 samples)
Accepted packet size average = 1 (50 samples)
Hops average = 3.49787 (50 samples)
Total run time 4.23566
