BEGIN Configuration File: /tmp/tmphb_26cln.cfg
topology = mesh;
k = 4;
n = 2;
routing_function = planar_adapt;
num_vcs = 4;
vc_buf_size = 4;
wait_for_tail_credit = 1;
vc_allocator = islip;
sw_allocator = islip;
alloc_iters = 1;
credit_delay = 2;
routing_delay = 1;
vc_alloc_delay = 1;
sw_alloc_delay = 1;
input_speedup = 2;
output_speedup = 1;
internal_speedup = 1.0;
traffic = transpose;
packet_size = 1;
sim_type = latency;
injection_rate = 0.01;
warmup_periods = 3;
sample_period = 500;
sim_count = 50;
seed = 0;
link_failures = 2;
fail_seed = 101;

END Configuration File: /tmp/tmphb_26cln.cfg
failure at node 14, channel 0 (1/2)
failure at node 12, channel 0 (2/2)
Class 0:
Packet latency average = 19.321
	minimum = 7
	maximum = 41
Network latency average = 19.321
	minimum = 7
	maximum = 41
Slowest packet = 69
Flit latency average = 19.321
	minimum = 7
	maximum = 41
Slowest flit = 69
Fragmentation average = 0
	minimum = 0
	maximum = 0
Injected packet rate average = 0.010375
	minimum = 0.004 (at node 5)
	maximum = 0.016 (at node 9)
Accepted packet rate average = 0.010125
	minimum = 0.004 (at node 5)
	maximum = 0.016 (at node 6)
Injected flit rate average = 0.010375
	minimum = 0.004 (at node 5)
	maximum = 0.016 (at node 9)
Accepted flit rate average= 0.010125
	minimum = 0.004 (at node 5)
	maximum = 0.016 (at node 6)
Injected packet length average = 1
Accepted packet length average = 1
Total in-flight flits = 2 (0 measured)
latency change    = 1
throughput change = 1
Class 0:
Packet latency average = 19.3506
	minimum = 7
	maximum = 41
Network latency average = 19.3506
	minimum = 7
	maximum = 41
Slowest packet = 69
Flit latency average = 19.3506
	minimum = 7
	maximum = 41
Slowest flit = 69
Fragmentation average = 0
	minimum = 0
	maximum = 0
Injected packet rate average = 0.00975
	minimum = 0.004 (at node 11)
	maximum = 0.014 (at node 13)
Accepted packet rate average = 0.009625
	minimum = 0.003 (at node 14)
	maximum = 0.014 (at node 7)
Injected flit rate average = 0.00975
	minimum = 0.004 (at node 11)
	maximum = 0.014 (at node 13)
Accepted flit rate average= 0.009625
	minimum = 0.003 (at node 14)
	maximum = 0.014 (at node 7)
Injected packet length average = 1
Accepted packet length average = 1
Total in-flight flits = 2 (0 measured)
latency change    = 0.00153285
throughput change = 0.0519481
Class 0:
Packet latency average = 18.4286
	minimum = 7
	maximum = 37
Network latency average = 18.4286
	minimum = 7
	maximum = 37
Slowest packet = 158
Flit latency average = 18.4286
	minimum = 7
	maximum = 37
Slowest flit = 158
Fragmentation average = 0
	minimum = 0
	maximum = 0
Injected packet rate average = 0.00925
	minimum = 0.002 (at node 11)
	maximum = 0.016 (at node 10)
Accepted packet rate average = 0.00875
	minimum = 0.002 (at node 7)
	maximum = 0.016 (at node 10)
Injected flit rate average = 0.00925
	minimum = 0.002 (at node 11)
	maximum = 0.016 (at node 10)
Accepted flit rate average= 0.00875
	minimum = 0.002 (at node 7)
	maximum = 0.016 (at node 10)
Injected packet length average = 1
Accepted packet length average = 1
Total in-flight flits = 6 (0 measured)
latency change    = 0.0500352
throughput change = 0.1
Warmed up ...Time used is 1500 cycles
Class 0:
Packet latency average = 20.8133
	minimum = 7
	maximum = 37
Network latency average = 20.8133
	minimum = 7
	maximum = 37
Slowest packet = 239
Flit latency average = 21.5185
	minimum = 7
	maximum = 37
Slowest flit = 223
Fragmentation average = 0
	minimum = 0
	maximum = 0
Injected packet rate average = 0.00975
	minimum = 0.004 (at node 3)
	maximum = 0.018 (at node 8)
Accepted packet rate average = 0.010125
	minimum = 0.004 (at node 1)
	maximum = 0.018 (at node 2)
Injected flit rate average = 0.00975
	minimum = 0.004 (at node 3)
	maximum = 0.018 (at node 8)
Accepted flit rate average= 0.010125
	minimum = 0.004 (at node 1)
	maximum = 0.018 (at node 2)
Injected packet length average = 1
Accepted packet length average = 1
Total in-flight flits = 3 (3 measured)
latency change    = 0.114579
throughput change = 0.135802
Class 0:
Packet latency average = 20.1046
	minimum = 7
	maximum = 38
Network latency average = 20.1046
	minimum = 7
	maximum = 38
Slowest packet = 359
Flit latency average = 20.4906
	minimum = 7
	maximum = 38
Slowest flit = 359
Fragmentation average = 0
	minimum = 0
	maximum = 0
Injected packet rate average = 0.0096875
	minimum = 0.005 (at node 7)
	maximum = 0.016 (at node 13)
Accepted packet rate average = 0.0099375
	minimum = 0.005 (at node 13)
	maximum = 0.016 (at node 7)
Injected flit rate average = 0.0096875
	minimum = 0.005 (at node 7)
	maximum = 0.016 (at node 13)
Accepted flit rate average= 0.0099375
	minimum = 0.005 (at node 13)
	maximum = 0.016 (at node 7)
Injected packet length average = 1
Accepted packet length average = 1
Total in-flight flits = 2 (2 measured)
latency change    = 0.0352536
throughput change = 0.0188679
Class 0:
Packet latency average = 20.27
	minimum = 7
	maximum = 46
Network latency average = 20.27
	minimum = 7
	maximum = 46
Slowest packet = 448
Flit latency average = 20.5185
	minimum = 7
	maximum = 46
Slowest flit = 448
Fragmentation average = 0
	minimum = 0
	maximum = 0
Injected packet rate average = 0.00991667
	minimum = 0.00733333 (at node 7)
	maximum = 0.0133333 (at node 13)
Accepted packet rate average = 0.010125
	minimum = 0.00666667 (at node 13)
	maximum = 0.0133333 (at node 7)
Injected flit rate average = 0.00991667
	minimum = 0.00733333 (at node 7)
	maximum = 0.0133333 (at node 13)
Accepted flit rate average= 0.010125
	minimum = 0.00666667 (at node 13)
	maximum = 0.0133333 (at node 7)
Injected packet length average = 1
Accepted packet length average = 1
Total in-flight flits = 1 (1 measured)
latency change    = 0.00816313
throughput change = 0.0185185
Class 0:
Packet latency average = 20.0415
	minimum = 7
	maximum = 46
Network latency average = 20.0415
	minimum = 7
	maximum = 46
Slowest packet = 448
Flit latency average = 20.2351
	minimum = 7
	maximum = 46
Slowest flit = 448
Fragmentation average = 0
	minimum = 0
	maximum = 0
Injected packet rate average = 0.00990625
	minimum = 0.0075 (at node 1)
	maximum = 0.013 (at node 8)
Accepted packet rate average = 0.00996875
	minimum = 0.0075 (at node 4)
	maximum = 0.013 (at node 2)
Injected flit rate average = 0.00990625
	minimum = 0.0075 (at node 1)
	maximum = 0.013 (at node 8)
Accepted flit rate average= 0.00996875
	minimum = 0.0075 (at node 4)
	maximum = 0.013 (at node 2)
Injected packet length average = 1
Accepted packet length average = 1
Total in-flight flits = 4 (4 measured)
latency change    = 0.0114018
throughput change = 0.015674
Draining all recorded packets ...
Draining remaining packets ...
Time taken is 3550 cycles
Class 0:
Packet latency average = 19.2188
	minimum = 7
	maximum = 37
Network latency average = 19.2188
	minimum = 7
	maximum = 37
Slowest packet = 564
Flit latency average = 19.2188
	minimum = 7
	maximum = 37
Slowest flit = 564
Fragmentation average = 0
	minimum = 0
	maximum = 0
Injected packet rate average = 0.008125
	minimum = 0.004 (at node 5)
	maximum = 0.016 (at node 11)
Accepted packet rate average = 0.008
	minimum = 0.004 (at node 2)
	maximum = 0.016 (at node 14)
Injected flit rate average = 0.008125
	minimum = 0.004 (at node 5)
	maximum = 0.016 (at node 11)
Accepted flit rate average= 0.008
	minimum = 0.004 (at node 2)
	maximum = 0.016 (at node 14)
Injected packet length average = 1
Accepted packet length average = 1
Total in-flight flits = 1 (0 measured)
latency change    = 1
throughput change = 1
Class 0:
Packet latency average = 18.8561
	minimum = 7
	maximum = 37
Network latency average = 18.8561
	minimum = 7
	maximum = 37
Slowest packet = 564
Flit latency average = 18.8561
	minimum = 7
	maximum = 37
Slowest flit = 564
Fragmentation average = 0
	minimum = 0
	maximum = 0
Injected packet rate average = 0.009
	minimum = 0.006 (at node 8)
	maximum = 0.016 (at node 10)
Accepted packet rate average = 0.0086875
	minimum = 0.006 (at node 2)
	maximum = 0.016 (at node 10)
Injected flit rate average = 0.009
	minimum = 0.006 (at node 8)
	maximum = 0.016 (at node 10)
Accepted flit rate average= 0.0086875
	minimum = 0.006 (at node 2)
	maximum = 0.016 (at node 10)
Injected packet length average = 1
Accepted packet length average = 1
Total in-flight flits = 5 (0 measured)
latency change    = 0.0192317
throughput change = 0.0791367
Class 0:
Packet latency average = 20.3662
	minimum = 7
	maximum = 39
Network latency average = 20.3662
	minimum = 7
	maximum = 39
Slowest packet = 744
Flit latency average = 20.3662
	minimum = 7
	maximum = 39
Slowest flit = 744
Fragmentation average = 0
	minimum = 0
	maximum = 0
Injected packet rate average = 0.009
	minimum = 0.004 (at node 9)
	maximum = 0.014 (at node 6)
Accepted packet rate average = 0.008875
	minimum = 0.004 (at node 6)
	maximum = 0.016 (at node 9)
Injected flit rate average = 0.009
	minimum = 0.004 (at node 9)
	maximum = 0.014 (at node 6)
Accepted flit rate average= 0.008875
	minimum = 0.004 (at node 6)
	maximum = 0.016 (at node 9)
Injected packet length average = 1
Accepted packet length average = 1
Total in-flight flits = 6 (0 measured)
latency change    = 0.0741465
throughput change = 0.0211268
Warmed up ...Time used is 1500 cycles
Class 0:
Packet latency average = 17.675
	minimum = 7
	maximum = 37
Network latency average = 17.675
	minimum = 7
	maximum = 37
Slowest packet = 772
Flit latency average = 18.093
	minimum = 7
	maximum = 37
Slowest flit = 764
Fragmentation average = 0
	minimum = 0
	maximum = 0
Injected packet rate average = 0.01025
	minimum = 0.002 (at node 2)
	maximum = 0.02 (at node 15)
Accepted packet rate average = 0.01075
	minimum = 0.002 (at node 8)
	maximum = 0.02 (at node 15)
Injected flit rate average = 0.01025
	minimum = 0.002 (at node 2)
	maximum = 0.02 (at node 15)
Accepted flit rate average= 0.01075
	minimum = 0.002 (at node 8)
	maximum = 0.02 (at node 15)
Injected packet length average = 1
Accepted packet length average = 1
Total in-flight flits = 2 (2 measured)
latency change    = 0.15226
throughput change = 0.174419
Class 0:
Packet latency average = 19.9671
	minimum = 7
	maximum = 45
Network latency average = 19.9671
	minimum = 7
	maximum = 45
Slowest packet = 895
Flit latency average = 20.1076
	minimum = 7
	maximum = 45
Slowest flit = 895
Fragmentation average = 0
	minimum = 0
	maximum = 0
Injected packet rate average = 0.009875
	minimum = 0.005 (at node 6)
	maximum = 0.015 (at node 3)
Accepted packet rate average = 0.009875
	minimum = 0.006 (at node 8)
	maximum = 0.015 (at node 12)
Injected flit rate average = 0.009875
	minimum = 0.005 (at node 6)
	maximum = 0.015 (at node 3)
Accepted flit rate average= 0.009875
	minimum = 0.006 (at node 8)
	maximum = 0.015 (at node 12)
Injected packet length average = 1
Accepted packet length average = 1
Total in-flight flits = 6 (6 measured)
latency change    = 0.114794
throughput change = 0.0886076
Class 0:
Packet latency average = 20.1519
	minimum = 7
	maximum = 45
Network latency average = 20.1519
	minimum = 7
	maximum = 45
Slowest packet = 895
Flit latency average = 20.2387
	minimum = 7
	maximum = 45
Slowest flit = 895
Fragmentation average = 0
	minimum = 0
	maximum = 0
Injected packet rate average = 0.01025
	minimum = 0.00533333 (at node 10)
	maximum = 0.018 (at node 3)
Accepted packet rate average = 0.010125
	minimum = 0.006 (at node 8)
	maximum = 0.016 (at node 12)
Injected flit rate average = 0.01025
	minimum = 0.00533333 (at node 10)
	maximum = 0.018 (at node 3)
Accepted flit rate average= 0.010125
	minimum = 0.006 (at node 8)
	maximum = 0.016 (at node 12)
Injected packet length average = 1
Accepted packet length average = 1
Total in-flight flits = 9 (9 measured)
latency change    = 0.00917003
throughput change = 0.0246914
Class 0:
Packet latency average = 20.4359
	minimum = 7
	maximum = 45
Network latency average = 20.4359
	minimum = 7
	maximum = 45
Slowest packet = 895
Flit latency average = 20.4969
	minimum = 7
	maximum = 45
Slowest flit = 895
Fragmentation average = 0
	minimum = 0
	maximum = 0
Injected packet rate average = 0.00996875
	minimum = 0.0055 (at node 2)
	maximum = 0.0165 (at node 13)
Accepted packet rate average = 0.0099375
	minimum = 0.0055 (at node 8)
	maximum = 0.0155 (at node 7)
Injected flit rate average = 0.00996875
	minimum = 0.0055 (at node 2)
	maximum = 0.0165 (at node 13)
Accepted flit rate average= 0.0099375
	minimum = 0.0055 (at node 8)
	maximum = 0.0155 (at node 7)
Injected packet length average = 1
Accepted packet length average = 1
Total in-flight flits = 7 (7 measured)
latency change    = 0.0138971
throughput change = 0.0188679
Class 0:
Packet latency average = 20.3622
	minimum = 7
	maximum = 45
Network latency average = 20.3622
	minimum = 7
	maximum = 45
Slowest packet = 895
Flit latency average = 20.4121
	minimum = 7
	maximum = 45
Slowest flit = 895
Fragmentation average = 0
	minimum = 0
	maximum = 0
Injected packet rate average = 0.00995
	minimum = 0.0072 (at node 2)
	maximum = 0.0156 (at node 13)
Accepted packet rate average = 0.00995
	minimum = 0.0068 (at node 8)
	maximum = 0.0156 (at node 7)
Injected flit rate average = 0.00995
	minimum = 0.0072 (at node 2)
	maximum = 0.0156 (at node 13)
Accepted flit rate average= 0.00995
	minimum = 0.0068 (at node 8)
	maximum = 0.0156 (at node 7)
Injected packet length average = 1
Accepted packet length average = 1
Total in-flight flits = 6 (6 measured)
latency change    = 0.00361711
throughput change = 0.00125628
Draining all recorded packets ...
Draining remaining packets ...
Time taken is 4047 cycles
Class 0:
Packet latency average = 19.4045
	minimum = 7
	maximum = 39
Network latency average = 19.4045
	minimum = 7
	maximum = 39
Slowest packet = 1212
Flit latency average = 19.4045
	minimum = 7
	maximum = 39
Slowest flit = 1212
Fragmentation average = 0
	minimum = 0
	maximum = 0
Injected packet rate average = 0.011375
	minimum = 0.004 (at node 5)
	maximum = 0.018 (at node 1)
Accepted packet rate average = 0.011125
	minimum = 0.004 (at node 5)
	maximum = 0.018 (at node 4)
Injected flit rate average = 0.011375
	minimum = 0.004 (at node 5)
	maximum = 0.018 (at node 1)
Accepted flit rate average= 0.011125
	minimum = 0.004 (at node 5)
	maximum = 0.018 (at node 4)
Injected packet length average = 1
Accepted packet length average = 1
Total in-flight flits = 2 (0 measured)
latency change    = 1
throughput change = 1
Class 0:
Packet latency average = 19.2487
	minimum = 7
	maximum = 41
Network latency average = 19.2487
	minimum = 7
	maximum = 41
Slowest packet = 1315
Flit latency average = 19.2487
	minimum = 7
	maximum = 41
Slowest flit = 1315
Fragmentation average = 0
	minimum = 0
	maximum = 0
Injected packet rate average = 0.012
	minimum = 0.007 (at node 8)
	maximum = 0.017 (at node 6)
Accepted packet rate average = 0.0118125
	minimum = 0.007 (at node 2)
	maximum = 0.017 (at node 9)
Injected flit rate average = 0.012
	minimum = 0.007 (at node 8)
	maximum = 0.017 (at node 6)
Accepted flit rate average= 0.0118125
	minimum = 0.007 (at node 2)
	maximum = 0.017 (at node 9)
Injected packet length average = 1
Accepted packet length average = 1
Total in-flight flits = 3 (0 measured)
latency change    = 0.00809495
throughput change = 0.0582011
Class 0:
Packet latency average = 20.6897
	minimum = 7
	maximum = 46
Network latency average = 20.6897
	minimum = 7
	maximum = 46
Slowest packet = 1411
Flit latency average = 20.6897
	minimum = 7
	maximum = 46
Slowest flit = 1411
Fragmentation average = 0
	minimum = 0
	maximum = 0
Injected packet rate average = 0.010625
	minimum = 0.004 (at node 5)
	maximum = 0.016 (at node 1)
Accepted packet rate average = 0.010875
	minimum = 0.004 (at node 5)
	maximum = 0.016 (at node 4)
Injected flit rate average = 0.010625
	minimum = 0.004 (at node 5)
	maximum = 0.016 (at node 1)
Accepted flit rate average= 0.010875
	minimum = 0.004 (at node 5)
	maximum = 0.016 (at node 4)
Injected packet length average = 1
Accepted packet length average = 1
Total in-flight flits = 1 (0 measured)
latency change    = 0.0696473
throughput change = 0.0862069
Warmed up ...Time used is 1500 cycles
Class 0:
Packet latency average = 20.6316
	minimum = 7
	maximum = 37
Network latency average = 20.6316
	minimum = 7
	maximum = 37
Slowest packet = 1455
Flit latency average = 20.5844
	minimum = 7
	maximum = 37
Slowest flit = 1455
Fragmentation average = 0
	minimum = 0
	maximum = 0
Injected packet rate average = 0.0095
	minimum = 0.002 (at node 5)
	maximum = 0.02 (at node 7)
Accepted packet rate average = 0.009625
	minimum = 0.002 (at node 5)
	maximum = 0.02 (at node 13)
Injected flit rate average = 0.0095
	minimum = 0.002 (at node 5)
	maximum = 0.02 (at node 7)
Accepted flit rate average= 0.009625
	minimum = 0.002 (at node 5)
	maximum = 0.02 (at node 13)
Injected packet length average = 1
Accepted packet length average = 1
Total in-flight flits = 0 (0 measured)
latency change    = 0.00281492
throughput change = 0.12987
Class 0:
Packet latency average = 20.7958
	minimum = 7
	maximum = 39
Network latency average = 20.7958
	minimum = 7
	maximum = 39
Slowest packet = 1585
Flit latency average = 20.7692
	minimum = 7
	maximum = 39
Slowest flit = 1585
Fragmentation average = 0
	minimum = 0
	maximum = 0
Injected packet rate average = 0.00925
	minimum = 0.004 (at node 2)
	maximum = 0.015 (at node 7)
Accepted packet rate average = 0.0089375
	minimum = 0.004 (at node 5)
	maximum = 0.014 (at node 12)
Injected flit rate average = 0.00925
	minimum = 0.004 (at node 2)
	maximum = 0.015 (at node 7)
Accepted flit rate average= 0.0089375
	minimum = 0.004 (at node 5)
	maximum = 0.014 (at node 12)
Injected packet length average = 1
Accepted packet length average = 1
Total in-flight flits = 6 (6 measured)
latency change    = 0.00789563
throughput change = 0.0769231
Class 0:
Packet latency average = 19.448
	minimum = 7
	maximum = 39
Network latency average = 19.448
	minimum = 7
	maximum = 39
Slowest packet = 1585
Flit latency average = 19.4369
	minimum = 7
	maximum = 39
Slowest flit = 1585
Fragmentation average = 0
	minimum = 0
	maximum = 0
Injected packet rate average = 0.009375
	minimum = 0.004 (at node 2)
	maximum = 0.012 (at node 1)
Accepted packet rate average = 0.00925
	minimum = 0.00333333 (at node 8)
	maximum = 0.012 (at node 4)
Injected flit rate average = 0.009375
	minimum = 0.004 (at node 2)
	maximum = 0.012 (at node 1)
Accepted flit rate average= 0.00925
	minimum = 0.00333333 (at node 8)
	maximum = 0.012 (at node 4)
Injected packet length average = 1
Accepted packet length average = 1
Total in-flight flits = 4 (4 measured)
latency change    = 0.0693034
throughput change = 0.0337838
Class 0:
Packet latency average = 19.6379
	minimum = 7
	maximum = 39
Network latency average = 19.6379
	minimum = 7
	maximum = 39
Slowest packet = 1585
Flit latency average = 19.6291
	minimum = 7
	maximum = 39
Slowest flit = 1585
Fragmentation average = 0
	minimum = 0
	maximum = 0
Injected packet rate average = 0.0095
	minimum = 0.005 (at node 2)
	maximum = 0.013 (at node 1)
Accepted packet rate average = 0.0094375
	minimum = 0.005 (at node 8)
	maximum = 0.013 (at node 4)
Injected flit rate average = 0.0095
	minimum = 0.005 (at node 2)
	maximum = 0.013 (at node 1)
Accepted flit rate average= 0.0094375
	minimum = 0.005 (at node 8)
	maximum = 0.013 (at node 4)
Injected packet length average = 1
Accepted packet length average = 1
Total in-flight flits = 3 (3 measured)
latency change    = 0.0096706
throughput change = 0.0198675
Class 0:
Packet latency average = 19.7564
	minimum = 7
	maximum = 39
Network latency average = 19.7564
	minimum = 7
	maximum = 39
Slowest packet = 1585
Flit latency average = 19.7494
	minimum = 7
	maximum = 39
Slowest flit = 1585
Fragmentation average = 0
	minimum = 0
	maximum = 0
Injected packet rate average = 0.009775
	minimum = 0.0072 (at node 6)
	maximum = 0.0124 (at node 1)
Accepted packet rate average = 0.009775
	minimum = 0.0072 (at node 9)
	maximum = 0.0124 (at node 4)
Injected flit rate average = 0.009775
	minimum = 0.0072 (at node 6)
	maximum = 0.0124 (at node 1)
Accepted flit rate average= 0.009775
	minimum = 0.0072 (at node 9)
	maximum = 0.0124 (at node 4)
Injected packet length average = 1
Accepted packet length average = 1
Total in-flight flits = 1 (1 measured)
latency change    = 0.0059999
throughput change = 0.0345269
Class 0:
Packet latency average = 19.9304
	minimum = 7
	maximum = 46
Network latency average = 19.9304
	minimum = 7
	maximum = 46
Slowest packet = 1853
Flit latency average = 19.9242
	minimum = 7
	maximum = 46
Slowest flit = 1853
Fragmentation average = 0
	minimum = 0
	maximum = 0
Injected packet rate average = 0.00991667
	minimum = 0.00733333 (at node 6)
	maximum = 0.013 (at node 7)
Accepted packet rate average = 0.00989583
	minimum = 0.00733333 (at node 9)
	maximum = 0.0126667 (at node 13)
Injected flit rate average = 0.00991667
	minimum = 0.00733333 (at node 6)
	maximum = 0.013 (at node 7)
Accepted flit rate average= 0.00989583
	minimum = 0.00733333 (at node 9)
	maximum = 0.0126667 (at node 13)
Injected packet length average = 1
Accepted packet length average = 1
Total in-flight flits = 2 (2 measured)
latency change    = 0.00872886
throughput change = 0.0122105
Draining all recorded packets ...
Draining remaining packets ...
Time taken is 4546 cycles
Class 0:
Packet latency average = 20.8837
	minimum = 7
	maximum = 38
Network latency average = 20.8837
	minimum = 7
	maximum = 38
Slowest packet = 1945
Flit latency average = 20.8837
	minimum = 7
	maximum = 38
Slowest flit = 1945
Fragmentation average = 0
	minimum = 0
	maximum = 0
Injected packet rate average = 0.01075
	minimum = 0.004 (at node 9)
	maximum = 0.018 (at node 2)
Accepted packet rate average = 0.01075
	minimum = 0.004 (at node 6)
	maximum = 0.018 (at node 8)
Injected flit rate average = 0.01075
	minimum = 0.004 (at node 9)
	maximum = 0.018 (at node 2)
Accepted flit rate average= 0.01075
	minimum = 0.004 (at node 6)
	maximum = 0.018 (at node 8)
Injected packet length average = 1
Accepted packet length average = 1
Total in-flight flits = 0 (0 measured)
latency change    = 1
throughput change = 1
Class 0:
Packet latency average = 20.0788
	minimum = 7
	maximum = 38
Network latency average = 20.0788
	minimum = 7
	maximum = 38
Slowest packet = 1945
Flit latency average = 20.0788
	minimum = 7
	maximum = 38
Slowest flit = 1945
Fragmentation average = 0
	minimum = 0
	maximum = 0
Injected packet rate average = 0.01075
	minimum = 0.006 (at node 10)
	maximum = 0.015 (at node 2)
Accepted packet rate average = 0.0103125
	minimum = 0.006 (at node 10)
	maximum = 0.013 (at node 7)
Injected flit rate average = 0.01075
	minimum = 0.006 (at node 10)
	maximum = 0.015 (at node 2)
Accepted flit rate average= 0.0103125
	minimum = 0.006 (at node 10)
	maximum = 0.013 (at node 7)
Injected packet length average = 1
Accepted packet length average = 1
Total in-flight flits = 7 (0 measured)
latency change    = 0.0400887
throughput change = 0.0424242
Class 0:
Packet latency average = 19.8876
	minimum = 7
	maximum = 37
Network latency average = 19.8876
	minimum = 7
	maximum = 37
Slowest packet = 2096
Flit latency average = 19.8876
	minimum = 7
	maximum = 37
Slowest flit = 2096
Fragmentation average = 0
	minimum = 0
	maximum = 0
Injected packet rate average = 0.01075
	minimum = 0.002 (at node 14)
	maximum = 0.018 (at node 10)
Accepted packet rate average = 0.011125
	minimum = 0.002 (at node 11)
	maximum = 0.02 (at node 7)
Injected flit rate average = 0.01075
	minimum = 0.002 (at node 14)
	maximum = 0.018 (at node 10)
Accepted flit rate average= 0.011125
	minimum = 0.002 (at node 11)
	maximum = 0.02 (at node 7)
Injected packet length average = 1
Accepted packet length average = 1
Total in-flight flits = 4 (0 measured)
latency change    = 0.00961137
throughput change = 0.0730337
Warmed up ...Time used is 1500 cycles
Class 0:
Packet latency average = 18.6769
	minimum = 7
	maximum = 37
Network latency average = 18.6769
	minimum = 7
	maximum = 37
Slowest packet = 2194
Flit latency average = 19.5942
	minimum = 7
	maximum = 37
Slowest flit = 2178
Fragmentation average = 0
	minimum = 0
	maximum = 0
Injected packet rate average = 0.008375
	minimum = 0.004 (at node 2)
	maximum = 0.012 (at node 7)
Accepted packet rate average = 0.008625
	minimum = 0.004 (at node 7)
	maximum = 0.012 (at node 12)
Injected flit rate average = 0.008375
	minimum = 0.004 (at node 2)
	maximum = 0.012 (at node 7)
Accepted flit rate average= 0.008625
	minimum = 0.004 (at node 7)
	maximum = 0.012 (at node 12)
Injected packet length average = 1
Accepted packet length average = 1
Total in-flight flits = 2 (2 measured)
latency change    = 0.0648242
throughput change = 0.289855
Class 0:
Packet latency average = 18.7676
	minimum = 7
	maximum = 37
Network latency average = 18.7676
	minimum = 7
	maximum = 37
Slowest packet = 2194
Flit latency average = 19.1986
	minimum = 7
	maximum = 37
Slowest flit = 2178
Fragmentation average = 0
	minimum = 0
	maximum = 0
Injected packet rate average = 0.009125
	minimum = 0.007 (at node 1)
	maximum = 0.012 (at node 9)
Accepted packet rate average = 0.009125
	minimum = 0.007 (at node 3)
	maximum = 0.012 (at node 6)
Injected flit rate average = 0.009125
	minimum = 0.007 (at node 1)
	maximum = 0.012 (at node 9)
Accepted flit rate average= 0.009125
	minimum = 0.007 (at node 3)
	maximum = 0.012 (at node 6)
Injected packet length average = 1
Accepted packet length average = 1
Total in-flight flits = 4 (4 measured)
latency change    = 0.00483187
throughput change = 0.0547945
Class 0:
Packet latency average = 18.7023
	minimum = 7
	maximum = 42
Network latency average = 18.7023
	minimum = 7
	maximum = 42
Slowest packet = 2326
Flit latency average = 18.9909
	minimum = 7
	maximum = 42
Slowest flit = 2326
Fragmentation average = 0
	minimum = 0
	maximum = 0
Injected packet rate average = 0.00908333
	minimum = 0.006 (at node 12)
	maximum = 0.012 (at node 7)
Accepted packet rate average = 0.009125
	minimum = 0.006 (at node 3)
	maximum = 0.012 (at node 13)
Injected flit rate average = 0.00908333
	minimum = 0.006 (at node 12)
	maximum = 0.012 (at node 7)
Accepted flit rate average= 0.009125
	minimum = 0.006 (at node 3)
	maximum = 0.012 (at node 13)
Injected packet length average = 1
Accepted packet length average = 1
Total in-flight flits = 3 (3 measured)
latency change    = 0.00349048
throughput change = 0
Class 0:
Packet latency average = 18.7391
	minimum = 7
	maximum = 42
Network latency average = 18.7391
	minimum = 7
	maximum = 42
Slowest packet = 2326
Flit latency average = 18.9472
	minimum = 7
	maximum = 42
Slowest flit = 2326
Fragmentation average = 0
	minimum = 0
	maximum = 0
Injected packet rate average = 0.009375
	minimum = 0.006 (at node 3)
	maximum = 0.012 (at node 7)
Accepted packet rate average = 0.00946875
	minimum = 0.007 (at node 12)
	maximum = 0.012 (at node 13)
Injected flit rate average = 0.009375
	minimum = 0.006 (at node 3)
	maximum = 0.012 (at node 7)
Accepted flit rate average= 0.00946875
	minimum = 0.007 (at node 12)
	maximum = 0.012 (at node 13)
Injected packet length average = 1
Accepted packet length average = 1
Total in-flight flits = 1 (1 measured)
latency change    = 0.00196406
throughput change = 0.0363036
Class 0:
Packet latency average = 19.063
	minimum = 7
	maximum = 42
Network latency average = 19.063
	minimum = 7
	maximum = 42
Slowest packet = 2326
Flit latency average = 19.2234
	minimum = 7
	maximum = 42
Slowest flit = 2326
Fragmentation average = 0
	minimum = 0
	maximum = 0
Injected packet rate average = 0.00955
	minimum = 0.0068 (at node 3)
	maximum = 0.012 (at node 5)
Accepted packet rate average = 0.009625
	minimum = 0.0072 (at node 0)
	maximum = 0.012 (at node 5)
Injected flit rate average = 0.00955
	minimum = 0.0068 (at node 3)
	maximum = 0.012 (at node 5)
Accepted flit rate average= 0.009625
	minimum = 0.0072 (at node 0)
	maximum = 0.012 (at node 5)
Injected packet length average = 1
Accepted packet length average = 1
Total in-flight flits = 1 (1 measured)
latency change    = 0.016989
throughput change = 0.0162338
Draining all recorded packets ...
Draining remaining packets ...
Time taken is 4059 cycles
Class 0:
Packet latency average = 18.7564
	minimum = 7
	maximum = 38
Network latency average = 18.7564
	minimum = 7
	maximum = 38
Slowest packet = 2645
Flit latency average = 18.7564
	minimum = 7
	maximum = 38
Slowest flit = 2645
Fragmentation average = 0
	minimum = 0
	maximum = 0
Injected packet rate average = 0.01025
	minimum = 0.006 (at node 7)
	maximum = 0.02 (at node 4)
Accepted packet rate average = 0.00975
	minimum = 0.006 (at node 7)
	maximum = 0.018 (at node 1)
Injected flit rate average = 0.01025
	minimum = 0.006 (at node 7)
	maximum = 0.02 (at node 4)
Accepted flit rate average= 0.00975
	minimum = 0.006 (at node 7)
	maximum = 0.018 (at node 1)
Injected packet length average = 1
Accepted packet length average = 1
Total in-flight flits = 4 (0 measured)
latency change    = 1
throughput change = 1
Class 0:
Packet latency average = 20.0432
	minimum = 7
	maximum = 45
Network latency average = 20.0432
	minimum = 7
	maximum = 45
Slowest packet = 2717
Flit latency average = 20.0432
	minimum = 7
	maximum = 45
Slowest flit = 2717
Fragmentation average = 0
	minimum = 0
	maximum = 0
Injected packet rate average = 0.01025
	minimum = 0.005 (at node 7)
	maximum = 0.014 (at node 11)
Accepted packet rate average = 0.010125
	minimum = 0.005 (at node 13)
	maximum = 0.014 (at node 14)
Injected flit rate average = 0.01025
	minimum = 0.005 (at node 7)
	maximum = 0.014 (at node 11)
Accepted flit rate average= 0.010125
	minimum = 0.005 (at node 13)
	maximum = 0.014 (at node 14)
Injected packet length average = 1
Accepted packet length average = 1
Total in-flight flits = 2 (0 measured)
latency change    = 0.0642013
throughput change = 0.037037
Class 0:
Packet latency average = 18.6393
	minimum = 7
	maximum = 37
Network latency average = 18.6393
	minimum = 7
	maximum = 37
Slowest packet = 2738
Flit latency average = 18.6393
	minimum = 7
	maximum = 37
Slowest flit = 2738
Fragmentation average = 0
	minimum = 0
	maximum = 0
Injected packet rate average = 0.008125
	minimum = 0.002 (at node 2)
	maximum = 0.016 (at node 11)
Accepted packet rate average = 0.007625
	minimum = 0.002 (at node 6)
	maximum = 0.014 (at node 14)
Injected flit rate average = 0.008125
	minimum = 0.002 (at node 2)
	maximum = 0.016 (at node 11)
Accepted flit rate average= 0.007625
	minimum = 0.002 (at node 6)
	maximum = 0.014 (at node 14)
Injected packet length average = 1
Accepted packet length average = 1
Total in-flight flits = 6 (0 measured)
latency change    = 0.0753173
throughput change = 0.327869
Warmed up ...Time used is 1500 cycles
Class 0:
Packet latency average = 20.8219
	minimum = 7
	maximum = 38
Network latency average = 20.8219
	minimum = 7
	maximum = 38
Slowest packet = 2807
Flit latency average = 21.2532
	minimum = 7
	maximum = 44
Slowest flit = 2800
Fragmentation average = 0
	minimum = 0
	maximum = 0
Injected packet rate average = 0.0095
	minimum = 0 (at node 10)
	maximum = 0.02 (at node 13)
Accepted packet rate average = 0.009875
	minimum = 0 (at node 10)
	maximum = 0.018 (at node 7)
Injected flit rate average = 0.0095
	minimum = 0 (at node 10)
	maximum = 0.02 (at node 13)
Accepted flit rate average= 0.009875
	minimum = 0 (at node 10)
	maximum = 0.018 (at node 7)
Injected packet length average = 1
Accepted packet length average = 1
Total in-flight flits = 3 (3 measured)
latency change    = 0.104821
throughput change = 0.227848
Class 0:
Packet latency average = 20.5714
	minimum = 7
	maximum = 41
Network latency average = 20.5714
	minimum = 7
	maximum = 41
Slowest packet = 2937
Flit latency average = 20.7844
	minimum = 7
	maximum = 44
Slowest flit = 2800
Fragmentation average = 0
	minimum = 0
	maximum = 0
Injected packet rate average = 0.0103125
	minimum = 0.004 (at node 9)
	maximum = 0.015 (at node 8)
Accepted packet rate average = 0.0104375
	minimum = 0.005 (at node 6)
	maximum = 0.015 (at node 2)
Injected flit rate average = 0.0103125
	minimum = 0.004 (at node 9)
	maximum = 0.015 (at node 8)
Accepted flit rate average= 0.0104375
	minimum = 0.005 (at node 6)
	maximum = 0.015 (at node 2)
Injected packet length average = 1
Accepted packet length average = 1
Total in-flight flits = 4 (4 measured)
latency change    = 0.0121766
throughput change = 0.0538922
Class 0:
Packet latency average = 20.1556
	minimum = 7
	maximum = 41
Network latency average = 20.1556
	minimum = 7
	maximum = 41
Slowest packet = 2937
Flit latency average = 20.3203
	minimum = 7
	maximum = 44
Slowest flit = 2800
Fragmentation average = 0
	minimum = 0
	maximum = 0
Injected packet rate average = 0.00945833
	minimum = 0.00266667 (at node 9)
	maximum = 0.0146667 (at node 11)
Accepted packet rate average = 0.009625
	minimum = 0.00333333 (at node 6)
	maximum = 0.0153333 (at node 14)
Injected flit rate average = 0.00945833
	minimum = 0.00266667 (at node 9)
	maximum = 0.0146667 (at node 11)
Accepted flit rate average= 0.009625
	minimum = 0.00333333 (at node 6)
	maximum = 0.0153333 (at node 14)
Injected packet length average = 1
Accepted packet length average = 1
Total in-flight flits = 2 (2 measured)
latency change    = 0.0206332
throughput change = 0.0844156
Class 0:
Packet latency average = 20.289
	minimum = 7
	maximum = 46
Network latency average = 20.289
	minimum = 7
	maximum = 46
Slowest packet = 3065
Flit latency average = 20.4104
	minimum = 7
	maximum = 46
Slowest flit = 3065
Fragmentation average = 0
	minimum = 0
	maximum = 0
Injected packet rate average = 0.00946875
	minimum = 0.0045 (at node 9)
	maximum = 0.013 (at node 8)
Accepted packet rate average = 0.00959375
	minimum = 0.005 (at node 6)
	maximum = 0.0135 (at node 14)
Injected flit rate average = 0.00946875
	minimum = 0.0045 (at node 9)
	maximum = 0.013 (at node 8)
Accepted flit rate average= 0.00959375
	minimum = 0.005 (at node 6)
	maximum = 0.0135 (at node 14)
Injected packet length average = 1
Accepted packet length average = 1
Total in-flight flits = 2 (2 measured)
latency change    = 0.00657897
throughput change = 0.00325733
Class 0:
Packet latency average = 20.4
	minimum = 7
	maximum = 46
Network latency average = 20.4
	minimum = 7
	maximum = 46
Slowest packet = 3065
Flit latency average = 20.4973
	minimum = 7
	maximum = 46
Slowest flit = 3065
Fragmentation average = 0
	minimum = 0
	maximum = 0
Injected packet rate average = 0.009275
	minimum = 0.0048 (at node 9)
	maximum = 0.0132 (at node 11)
Accepted packet rate average = 0.0094
	minimum = 0.0052 (at node 6)
	maximum = 0.0136 (at node 14)
Injected flit rate average = 0.009275
	minimum = 0.0048 (at node 9)
	maximum = 0.0132 (at node 11)
Accepted flit rate average= 0.0094
	minimum = 0.0052 (at node 6)
	maximum = 0.0136 (at node 14)
Injected packet length average = 1
Accepted packet length average = 1
Total in-flight flits = 1 (1 measured)
latency change    = 0.00543939
throughput change = 0.0206117
Class 0:
Packet latency average = 20.3348
	minimum = 7
	maximum = 46
Network latency average = 20.3348
	minimum = 7
	maximum = 46
Slowest packet = 3065
Flit latency average = 20.4158
	minimum = 7
	maximum = 46
Slowest flit = 3065
Fragmentation average = 0
	minimum = 0
	maximum = 0
Injected packet rate average = 0.0094375
	minimum = 0.00633333 (at node 2)
	maximum = 0.0116667 (at node 7)
Accepted packet rate average = 0.00952083
	minimum = 0.00633333 (at node 8)
	maximum = 0.012 (at node 14)
Injected flit rate average = 0.0094375
	minimum = 0.00633333 (at node 2)
	maximum = 0.0116667 (at node 7)
Accepted flit rate average= 0.00952083
	minimum = 0.00633333 (at node 8)
	maximum = 0.012 (at node 14)
Injected packet length average = 1
Accepted packet length average = 1
Total in-flight flits = 2 (2 measured)
latency change    = 0.00320576
throughput change = 0.0126915
Draining all recorded packets ...
Draining remaining packets ...
Time taken is 4543 cycles
Class 0:
Packet latency average = 20.6533
	minimum = 7
	maximum = 46
Network latency average = 20.6533
	minimum = 7
	maximum = 46
Slowest packet = 3264
Flit latency average = 20.6533
	minimum = 7
	maximum = 46
Slowest flit = 3264
Fragmentation average = 0
	minimum = 0
	maximum = 0
Injected packet rate average = 0.009625
	minimum = 0.002 (at node 5)
	maximum = 0.016 (at node 7)
Accepted packet rate average = 0.009375
	minimum = 0.002 (at node 5)
	maximum = 0.016 (at node 2)
Injected flit rate average = 0.009625
	minimum = 0.002 (at node 5)
	maximum = 0.016 (at node 7)
Accepted flit rate average= 0.009375
	minimum = 0.002 (at node 5)
	maximum = 0.016 (at node 2)
Injected packet length average = 1
Accepted packet length average = 1
Total in-flight flits = 2 (0 measured)
latency change    = 1
throughput change = 1
Class 0:
Packet latency average = 21.075
	minimum = 7
	maximum = 46
Network latency average = 21.075
	minimum = 7
	maximum = 46
Slowest packet = 3264
Flit latency average = 21.075
	minimum = 7
	maximum = 46
Slowest flit = 3264
Fragmentation average = 0
	minimum = 0
	maximum = 0
Injected packet rate average = 0.01025
	minimum = 0.004 (at node 5)
	maximum = 0.018 (at node 12)
Accepted packet rate average = 0.01
	minimum = 0.004 (at node 5)
	maximum = 0.018 (at node 3)
Injected flit rate average = 0.01025
	minimum = 0.004 (at node 5)
	maximum = 0.018 (at node 12)
Accepted flit rate average= 0.01
	minimum = 0.004 (at node 5)
	maximum = 0.018 (at node 3)
Injected packet length average = 1
Accepted packet length average = 1
Total in-flight flits = 4 (0 measured)
latency change    = 0.0200079
throughput change = 0.0625
Class 0:
Packet latency average = 17.837
	minimum = 7
	maximum = 37
Network latency average = 17.837
	minimum = 7
	maximum = 37
Slowest packet = 3418
Flit latency average = 17.837
	minimum = 7
	maximum = 37
Slowest flit = 3418
Fragmentation average = 0
	minimum = 0
	maximum = 0
Injected packet rate average = 0.01125
	minimum = 0.002 (at node 1)
	maximum = 0.02 (at node 0)
Accepted packet rate average = 0.0115
	minimum = 0.002 (at node 2)
	maximum = 0.02 (at node 0)
Injected flit rate average = 0.01125
	minimum = 0.002 (at node 1)
	maximum = 0.02 (at node 0)
Accepted flit rate average= 0.0115
	minimum = 0.002 (at node 2)
	maximum = 0.02 (at node 0)
Injected packet length average = 1
Accepted packet length average = 1
Total in-flight flits = 2 (0 measured)
latency change    = 0.181536
throughput change = 0.130435
Warmed up ...Time used is 1500 cycles
Class 0:
Packet latency average = 18.45
	minimum = 7
	maximum = 37
Network latency average = 18.45
	minimum = 7
	maximum = 37
Slowest packet = 3517
Flit latency average = 18.6585
	minimum = 7
	maximum = 37
Slowest flit = 3510
Fragmentation average = 0
	minimum = 0
	maximum = 0
Injected packet rate average = 0.01025
	minimum = 0.004 (at node 12)
	maximum = 0.022 (at node 14)
Accepted packet rate average = 0.01025
	minimum = 0.004 (at node 3)
	maximum = 0.022 (at node 11)
Injected flit rate average = 0.01025
	minimum = 0.004 (at node 12)
	maximum = 0.022 (at node 14)
Accepted flit rate average= 0.01025
	minimum = 0.004 (at node 3)
	maximum = 0.022 (at node 11)
Injected packet length average = 1
Accepted packet length average = 1
Total in-flight flits = 2 (2 measured)
latency change    = 0.0332273
throughput change = 0.121951
Class 0:
Packet latency average = 17.913
	minimum = 7
	maximum = 37
Network latency average = 17.913
	minimum = 7
	maximum = 37
Slowest packet = 3517
Flit latency average = 18.0429
	minimum = 7
	maximum = 37
Slowest flit = 3510
Fragmentation average = 0
	minimum = 0
	maximum = 0
Injected packet rate average = 0.00875
	minimum = 0.005 (at node 2)
	maximum = 0.012 (at node 5)
Accepted packet rate average = 0.00875
	minimum = 0.005 (at node 2)
	maximum = 0.012 (at node 5)
Injected flit rate average = 0.00875
	minimum = 0.005 (at node 2)
	maximum = 0.012 (at node 5)
Accepted flit rate average= 0.00875
	minimum = 0.005 (at node 2)
	maximum = 0.012 (at node 5)
Injected packet length average = 1
Accepted packet length average = 1
Total in-flight flits = 2 (2 measured)
latency change    = 0.0299757
throughput change = 0.171429
Class 0:
Packet latency average = 18.226
	minimum = 7
	maximum = 46
Network latency average = 18.226
	minimum = 7
	maximum = 46
Slowest packet = 3656
Flit latency average = 18.3095
	minimum = 7
	maximum = 46
Slowest flit = 3656
Fragmentation average = 0
	minimum = 0
	maximum = 0
Injected packet rate average = 0.00879167
	minimum = 0.00466667 (at node 2)
	maximum = 0.016 (at node 11)
Accepted packet rate average = 0.00875
	minimum = 0.00466667 (at node 8)
	maximum = 0.0146667 (at node 14)
Injected flit rate average = 0.00879167
	minimum = 0.00466667 (at node 2)
	maximum = 0.016 (at node 11)
Accepted flit rate average= 0.00875
	minimum = 0.00466667 (at node 8)
	maximum = 0.0146667 (at node 14)
Injected packet length average = 1
Accepted packet length average = 1
Total in-flight flits = 3 (3 measured)
latency change    = 0.0171688
throughput change = 0
Class 0:
Packet latency average = 18.5801
	minimum = 7
	maximum = 46
Network latency average = 18.5801
	minimum = 7
	maximum = 46
Slowest packet = 3656
Flit latency average = 18.6396
	minimum = 7
	maximum = 46
Slowest flit = 3656
Fragmentation average = 0
	minimum = 0
	maximum = 0
Injected packet rate average = 0.00896875
	minimum = 0.0055 (at node 2)
	maximum = 0.0145 (at node 11)
Accepted packet rate average = 0.00884375
	minimum = 0.005 (at node 8)
	maximum = 0.0145 (at node 14)
Injected flit rate average = 0.00896875
	minimum = 0.0055 (at node 2)
	maximum = 0.0145 (at node 11)
Accepted flit rate average= 0.00884375
	minimum = 0.005 (at node 8)
	maximum = 0.0145 (at node 14)
Injected packet length average = 1
Accepted packet length average = 1
Total in-flight flits = 6 (6 measured)
latency change    = 0.0190586
throughput change = 0.0106007
Class 0:
Packet latency average = 18.7562
	minimum = 7
	maximum = 46
Network latency average = 18.7562
	minimum = 7
	maximum = 46
Slowest packet = 3656
Flit latency average = 18.8017
	minimum = 7
	maximum = 46
Slowest flit = 3656
Fragmentation average = 0
	minimum = 0
	maximum = 0
Injected packet rate average = 0.00905
	minimum = 0.006 (at node 2)
	maximum = 0.0144 (at node 11)
Accepted packet rate average = 0.009075
	minimum = 0.006 (at node 8)
	maximum = 0.0144 (at node 14)
Injected flit rate average = 0.00905
	minimum = 0.006 (at node 2)
	maximum = 0.0144 (at node 11)
Accepted flit rate average= 0.009075
	minimum = 0.006 (at node 8)
	maximum = 0.0144 (at node 14)
Injected packet length average = 1
Accepted packet length average = 1
Total in-flight flits = 1 (1 measured)
latency change    = 0.00939216
throughput change = 0.0254821
Draining all recorded packets ...
Draining remaining packets ...
Time taken is 4027 cycles
Class 0:
Packet latency average = 18.8
	minimum = 7
	maximum = 37
Network latency average = 18.8
	minimum = 7
	maximum = 37
Slowest packet = 3882
Flit latency average = 18.8
	minimum = 7
	maximum = 37
Slowest flit = 3882
Fragmentation average = 0
	minimum = 0
	maximum = 0
Injected packet rate average = 0.00925
	minimum = 0 (at node 10)
	maximum = 0.016 (at node 13)
Accepted packet rate average = 0.00875
	minimum = 0 (at node 10)
	maximum = 0.016 (at node 7)
Injected flit rate average = 0.00925
	minimum = 0 (at node 10)
	maximum = 0.016 (at node 13)
Accepted flit rate average= 0.00875
	minimum = 0 (at node 10)
	maximum = 0.016 (at node 7)
Injected packet length average = 1
Accepted packet length average = 1
Total in-flight flits = 4 (0 measured)
latency change    = 1
throughput change = 1
Class 0:
Packet latency average = 19.9387
	minimum = 7
	maximum = 37
Network latency average = 19.9387
	minimum = 7
	maximum = 37
Slowest packet = 3882
Flit latency average = 19.9387
	minimum = 7
	maximum = 37
Slowest flit = 3882
Fragmentation average = 0
	minimum = 0
	maximum = 0
Injected packet rate average = 0.01075
	minimum = 0.004 (at node 12)
	maximum = 0.017 (at node 11)
Accepted packet rate average = 0.0101875
	minimum = 0.004 (at node 3)
	maximum = 0.017 (at node 14)
Injected flit rate average = 0.01075
	minimum = 0.004 (at node 12)
	maximum = 0.017 (at node 11)
Accepted flit rate average= 0.0101875
	minimum = 0.004 (at node 3)
	maximum = 0.017 (at node 14)
Injected packet length average = 1
Accepted packet length average = 1
Total in-flight flits = 9 (0 measured)
latency change    = 0.0571077
throughput change = 0.141104
Class 0:
Packet latency average = 19.6333
	minimum = 7
	maximum = 44
Network latency average = 19.6333
	minimum = 7
	maximum = 44
Slowest packet = 4039
Flit latency average = 19.6333
	minimum = 7
	maximum = 44
Slowest flit = 4039
Fragmentation average = 0
	minimum = 0
	maximum = 0
Injected packet rate average = 0.01075
	minimum = 0.004 (at node 14)
	maximum = 0.02 (at node 0)
Accepted packet rate average = 0.01125
	minimum = 0.006 (at node 1)
	maximum = 0.022 (at node 2)
Injected flit rate average = 0.01075
	minimum = 0.004 (at node 14)
	maximum = 0.02 (at node 0)
Accepted flit rate average= 0.01125
	minimum = 0.006 (at node 1)
	maximum = 0.022 (at node 2)
Injected packet length average = 1
Accepted packet length average = 1
Total in-flight flits = 5 (0 measured)
latency change    = 0.0155509
throughput change = 0.0944444
Warmed up ...Time used is 1500 cycles
Class 0:
Packet latency average = 20.4677
	minimum = 7
	maximum = 37
Network latency average = 20.4677
	minimum = 7
	maximum = 37
Slowest packet = 4143
Flit latency average = 20.5075
	minimum = 7
	maximum = 37
Slowest flit = 4143
Fragmentation average = 0
	minimum = 0
	maximum = 0
Injected packet rate average = 0.008125
	minimum = 0.004 (at node 6)
	maximum = 0.014 (at node 3)
Accepted packet rate average = 0.008375
	minimum = 0.004 (at node 6)
	maximum = 0.012 (at node 3)
Injected flit rate average = 0.008125
	minimum = 0.004 (at node 6)
	maximum = 0.014 (at node 3)
Accepted flit rate average= 0.008375
	minimum = 0.004 (at node 6)
	maximum = 0.012 (at node 3)
Injected packet length average = 1
Accepted packet length average = 1
Total in-flight flits = 3 (3 measured)
latency change    = 0.040767
throughput change = 0.343284
Class 0:
Packet latency average = 19.8699
	minimum = 7
	maximum = 37
Network latency average = 19.8699
	minimum = 7
	maximum = 37
Slowest packet = 4143
Flit latency average = 19.9073
	minimum = 7
	maximum = 37
Slowest flit = 4143
Fragmentation average = 0
	minimum = 0
	maximum = 0
Injected packet rate average = 0.0093125
	minimum = 0.005 (at node 7)
	maximum = 0.013 (at node 2)
Accepted packet rate average = 0.0094375
	minimum = 0.004 (at node 13)
	maximum = 0.014 (at node 2)
Injected flit rate average = 0.0093125
	minimum = 0.005 (at node 7)
	maximum = 0.013 (at node 2)
Accepted flit rate average= 0.0094375
	minimum = 0.004 (at node 13)
	maximum = 0.014 (at node 2)
Injected packet length average = 1
Accepted packet length average = 1
Total in-flight flits = 3 (3 measured)
latency change    = 0.0300897
throughput change = 0.112583
Class 0:
Packet latency average = 19.854
	minimum = 7
	maximum = 37
Network latency average = 19.854
	minimum = 7
	maximum = 37
Slowest packet = 4143
Flit latency average = 19.8788
	minimum = 7
	maximum = 37
Slowest flit = 4143
Fragmentation average = 0
	minimum = 0
	maximum = 0
Injected packet rate average = 0.00966667
	minimum = 0.006 (at node 7)
	maximum = 0.0153333 (at node 8)
Accepted packet rate average = 0.009625
	minimum = 0.00533333 (at node 13)
	maximum = 0.0153333 (at node 2)
Injected flit rate average = 0.00966667
	minimum = 0.006 (at node 7)
	maximum = 0.0153333 (at node 8)
Accepted flit rate average= 0.009625
	minimum = 0.00533333 (at node 13)
	maximum = 0.0153333 (at node 2)
Injected packet length average = 1
Accepted packet length average = 1
Total in-flight flits = 6 (6 measured)
latency change    = 0.000799875
throughput change = 0.0194805
Class 0:
Packet latency average = 20.0495
	minimum = 7
	maximum = 37
Network latency average = 20.0495
	minimum = 7
	maximum = 37
Slowest packet = 4143
Flit latency average = 20.0649
	minimum = 7
	maximum = 37
Slowest flit = 4143
Fragmentation average = 0
	minimum = 0
	maximum = 0
Injected packet rate average = 0.00959375
	minimum = 0.006 (at node 7)
	maximum = 0.013 (at node 8)
Accepted packet rate average = 0.009625
	minimum = 0.006 (at node 13)
	maximum = 0.013 (at node 2)
Injected flit rate average = 0.00959375
	minimum = 0.006 (at node 7)
	maximum = 0.013 (at node 8)
Accepted flit rate average= 0.009625
	minimum = 0.006 (at node 13)
	maximum = 0.013 (at node 2)
Injected packet length average = 1
Accepted packet length average = 1
Total in-flight flits = 4 (4 measured)
latency change    = 0.00975199
throughput change = 0
Class 0:
Packet latency average = 19.9015
	minimum = 7
	maximum = 37
Network latency average = 19.9015
	minimum = 7
	maximum = 37
Slowest packet = 4143
Flit latency average = 19.9152
	minimum = 7
	maximum = 37
Slowest flit = 4143
Fragmentation average = 0
	minimum = 0
	maximum = 0
Injected packet rate average = 0.0099
	minimum = 0.0064 (at node 7)
	maximum = 0.0152 (at node 8)
Accepted packet rate average = 0.010025
	minimum = 0.0064 (at node 13)
	maximum = 0.0156 (at node 2)
Injected flit rate average = 0.0099
	minimum = 0.0064 (at node 7)
	maximum = 0.0152 (at node 8)
Accepted flit rate average= 0.010025
	minimum = 0.0064 (at node 13)
	maximum = 0.0156 (at node 2)
Injected packet length average = 1
Accepted packet length average = 1
Total in-flight flits = 0 (0 measured)
latency change    = 0.00743611
throughput change = 0.0399002
Draining all recorded packets ...
Draining remaining packets ...
Time taken is 4001 cycles
Class 0:
Packet latency average = 18.4
	minimum = 7
	maximum = 38
Network latency average = 18.4
	minimum = 7
	maximum = 38
Slowest packet = 4572
Flit latency average = 18.4
	minimum = 7
	maximum = 38
Slowest flit = 4572
Fragmentation average = 0
	minimum = 0
	maximum = 0
Injected packet rate average = 0.01
	minimum = 0.004 (at node 2)
	maximum = 0.02 (at node 5)
Accepted packet rate average = 0.009375
	minimum = 0.004 (at node 6)
	maximum = 0.02 (at node 5)
Injected flit rate average = 0.01
	minimum = 0.004 (at node 2)
	maximum = 0.02 (at node 5)
Accepted flit rate average= 0.009375
	minimum = 0.004 (at node 6)
	maximum = 0.02 (at node 5)
Injected packet length average = 1
Accepted packet length average = 1
Total in-flight flits = 5 (0 measured)
latency change    = 1
throughput change = 1
Class 0:
Packet latency average = 18.8631
	minimum = 7
	maximum = 38
Network latency average = 18.8631
	minimum = 7
	maximum = 38
Slowest packet = 4572
Flit latency average = 18.8631
	minimum = 7
	maximum = 38
Slowest flit = 4572
Fragmentation average = 0
	minimum = 0
	maximum = 0
Injected packet rate average = 0.010875
	minimum = 0.006 (at node 14)
	maximum = 0.02 (at node 5)
Accepted packet rate average = 0.0105
	minimum = 0.005 (at node 11)
	maximum = 0.02 (at node 5)
Injected flit rate average = 0.010875
	minimum = 0.006 (at node 14)
	maximum = 0.02 (at node 5)
Accepted flit rate average= 0.0105
	minimum = 0.005 (at node 11)
	maximum = 0.02 (at node 5)
Injected packet length average = 1
Accepted packet length average = 1
Total in-flight flits = 6 (0 measured)
latency change    = 0.0245503
throughput change = 0.107143
Class 0:
Packet latency average = 22.4493
	minimum = 7
	maximum = 42
Network latency average = 22.4493
	minimum = 7
	maximum = 42
Slowest packet = 4743
Flit latency average = 22.4493
	minimum = 7
	maximum = 42
Slowest flit = 4743
Fragmentation average = 0
	minimum = 0
	maximum = 0
Injected packet rate average = 0.008125
	minimum = 0.002 (at node 0)
	maximum = 0.014 (at node 12)
Accepted packet rate average = 0.008625
	minimum = 0.002 (at node 0)
	maximum = 0.016 (at node 3)
Injected flit rate average = 0.008125
	minimum = 0.002 (at node 0)
	maximum = 0.014 (at node 12)
Accepted flit rate average= 0.008625
	minimum = 0.002 (at node 0)
	maximum = 0.016 (at node 3)
Injected packet length average = 1
Accepted packet length average = 1
Total in-flight flits = 2 (0 measured)
latency change    = 0.159746
throughput change = 0.217391
Warmed up ...Time used is 1500 cycles
Class 0:
Packet latency average = 16.2535
	minimum = 7
	maximum = 37
Network latency average = 16.2535
	minimum = 7
	maximum = 37
Slowest packet = 4769
Flit latency average = 16.411
	minimum = 7
	maximum = 37
Slowest flit = 4769
Fragmentation average = 0
	minimum = 0
	maximum = 0
Injected packet rate average = 0.009125
	minimum = 0.002 (at node 3)
	maximum = 0.018 (at node 15)
Accepted packet rate average = 0.009125
	minimum = 0.002 (at node 3)
	maximum = 0.018 (at node 15)
Injected flit rate average = 0.009125
	minimum = 0.002 (at node 3)
	maximum = 0.018 (at node 15)
Accepted flit rate average= 0.009125
	minimum = 0.002 (at node 3)
	maximum = 0.018 (at node 15)
Injected packet length average = 1
Accepted packet length average = 1
Total in-flight flits = 2 (2 measured)
latency change    = 0.381195
throughput change = 0.0547945
Class 0:
Packet latency average = 17.3478
	minimum = 7
	maximum = 37
Network latency average = 17.3478
	minimum = 7
	maximum = 37
Slowest packet = 4769
Flit latency average = 17.4049
	minimum = 7
	maximum = 37
Slowest flit = 4769
Fragmentation average = 0
	minimum = 0
	maximum = 0
Injected packet rate average = 0.0103125
	minimum = 0.004 (at node 9)
	maximum = 0.019 (at node 0)
Accepted packet rate average = 0.0101875
	minimum = 0.004 (at node 6)
	maximum = 0.019 (at node 0)
Injected flit rate average = 0.0103125
	minimum = 0.004 (at node 9)
	maximum = 0.019 (at node 0)
Accepted flit rate average= 0.0101875
	minimum = 0.004 (at node 6)
	maximum = 0.019 (at node 0)
Injected packet length average = 1
Accepted packet length average = 1
Total in-flight flits = 4 (4 measured)
latency change    = 0.0630802
throughput change = 0.104294
Class 0:
Packet latency average = 18.0928
	minimum = 7
	maximum = 38
Network latency average = 18.0928
	minimum = 7
	maximum = 38
Slowest packet = 4969
Flit latency average = 18.1255
	minimum = 7
	maximum = 38
Slowest flit = 4969
Fragmentation average = 0
	minimum = 0
	maximum = 0
Injected packet rate average = 0.00991667
	minimum = 0.006 (at node 3)
	maximum = 0.014 (at node 10)
Accepted packet rate average = 0.00995833
	minimum = 0.006 (at node 9)
	maximum = 0.014 (at node 10)
Injected flit rate average = 0.00991667
	minimum = 0.006 (at node 3)
	maximum = 0.014 (at node 10)
Accepted flit rate average= 0.00995833
	minimum = 0.006 (at node 9)
	maximum = 0.014 (at node 10)
Injected packet length average = 1
Accepted packet length average = 1
Total in-flight flits = 1 (1 measured)
latency change    = 0.0411766
throughput change = 0.0230126
Class 0:
Packet latency average = 18.5
	minimum = 7
	maximum = 38
Network latency average = 18.5
	minimum = 7
	maximum = 38
Slowest packet = 4969
Flit latency average = 18.5213
	minimum = 7
	maximum = 38
Slowest flit = 4969
Fragmentation average = 0
	minimum = 0
	maximum = 0
Injected packet rate average = 0.0103125
	minimum = 0.0075 (at node 6)
	maximum = 0.015 (at node 15)
Accepted packet rate average = 0.01025
	minimum = 0.0075 (at node 6)
	maximum = 0.015 (at node 15)
Injected flit rate average = 0.0103125
	minimum = 0.0075 (at node 6)
	maximum = 0.015 (at node 15)
Accepted flit rate average= 0.01025
	minimum = 0.0075 (at node 6)
	maximum = 0.015 (at node 15)
Injected packet length average = 1
Accepted packet length average = 1
Total in-flight flits = 4 (4 measured)
latency change    = 0.0220094
throughput change = 0.0284553
Class 0:
Packet latency average = 18.7681
	minimum = 7
	maximum = 46
Network latency average = 18.7681
	minimum = 7
	maximum = 46
Slowest packet = 5098
Flit latency average = 18.7841
	minimum = 7
	maximum = 46
Slowest flit = 5098
Fragmentation average = 0
	minimum = 0
	maximum = 0
Injected packet rate average = 0.0101
	minimum = 0.0076 (at node 7)
	maximum = 0.0136 (at node 15)
Accepted packet rate average = 0.010075
	minimum = 0.0076 (at node 13)
	maximum = 0.0136 (at node 15)
Injected flit rate average = 0.0101
	minimum = 0.0076 (at node 7)
	maximum = 0.0136 (at node 15)
Accepted flit rate average= 0.010075
	minimum = 0.0076 (at node 13)
	maximum = 0.0136 (at node 15)
Injected packet length average = 1
Accepted packet length average = 1
Total in-flight flits = 3 (3 measured)
latency change    = 0.0142838
throughput change = 0.0173697
Draining all recorded packets ...
Draining remaining packets ...
Time taken is 4033 cycles
Class 0:
Packet latency average = 21.5
	minimum = 7
	maximum = 44
Network latency average = 21.5
	minimum = 7
	maximum = 44
Slowest packet = 5185
Flit latency average = 21.5
	minimum = 7
	maximum = 44
Slowest flit = 5185
Fragmentation average = 0
	minimum = 0
	maximum = 0
Injected packet rate average = 0.00875
	minimum = 0.004 (at node 6)
	maximum = 0.016 (at node 3)
Accepted packet rate average = 0.0085
	minimum = 0.004 (at node 6)
	maximum = 0.016 (at node 12)
Injected flit rate average = 0.00875
	minimum = 0.004 (at node 6)
	maximum = 0.016 (at node 3)
Accepted flit rate average= 0.0085
	minimum = 0.004 (at node 6)
	maximum = 0.016 (at node 12)
Injected packet length average = 1
Accepted packet length average = 1
Total in-flight flits = 2 (0 measured)
latency change    = 1
throughput change = 1
Class 0:
Packet latency average = 21.3506
	minimum = 7
	maximum = 44
Network latency average = 21.3506
	minimum = 7
	maximum = 44
Slowest packet = 5185
Flit latency average = 21.3506
	minimum = 7
	maximum = 44
Slowest flit = 5185
Fragmentation average = 0
	minimum = 0
	maximum = 0
Injected packet rate average = 0.009625
	minimum = 0.005 (at node 4)
	maximum = 0.017 (at node 12)
Accepted packet rate average = 0.009625
	minimum = 0.005 (at node 1)
	maximum = 0.017 (at node 3)
Injected flit rate average = 0.009625
	minimum = 0.005 (at node 4)
	maximum = 0.017 (at node 12)
Accepted flit rate average= 0.009625
	minimum = 0.005 (at node 1)
	maximum = 0.017 (at node 3)
Injected packet length average = 1
Accepted packet length average = 1
Total in-flight flits = 0 (0 measured)
latency change    = 0.00699513
throughput change = 0.116883
Class 0:
Packet latency average = 22.0417
	minimum = 7
	maximum = 40
Network latency average = 22.0417
	minimum = 7
	maximum = 40
Slowest packet = 5352
Flit latency average = 22.0417
	minimum = 7
	maximum = 40
Slowest flit = 5352
Fragmentation average = 0
	minimum = 0
	maximum = 0
Injected packet rate average = 0.009375
	minimum = 0.004 (at node 5)
	maximum = 0.018 (at node 8)
Accepted packet rate average = 0.009
	minimum = 0.004 (at node 5)
	maximum = 0.018 (at node 2)
Injected flit rate average = 0.009375
	minimum = 0.004 (at node 5)
	maximum = 0.018 (at node 8)
Accepted flit rate average= 0.009
	minimum = 0.004 (at node 5)
	maximum = 0.018 (at node 2)
Injected packet length average = 1
Accepted packet length average = 1
Total in-flight flits = 3 (0 measured)
latency change    = 0.0313505
throughput change = 0.0694444
Warmed up ...Time used is 1500 cycles
Class 0:
Packet latency average = 20.2188
	minimum = 7
	maximum = 37
Network latency average = 20.2188
	minimum = 7
	maximum = 37
Slowest packet = 5413
Flit latency average = 20.7164
	minimum = 7
	maximum = 37
Slowest flit = 5405
Fragmentation average = 0
	minimum = 0
	maximum = 0
Injected packet rate average = 0.008125
	minimum = 0.004 (at node 2)
	maximum = 0.014 (at node 9)
Accepted packet rate average = 0.008375
	minimum = 0.004 (at node 8)
	maximum = 0.014 (at node 6)
Injected flit rate average = 0.008125
	minimum = 0.004 (at node 2)
	maximum = 0.014 (at node 9)
Accepted flit rate average= 0.008375
	minimum = 0.004 (at node 8)
	maximum = 0.014 (at node 6)
Injected packet length average = 1
Accepted packet length average = 1
Total in-flight flits = 1 (1 measured)
latency change    = 0.0901597
throughput change = 0.0746269
Class 0:
Packet latency average = 21.6812
	minimum = 7
	maximum = 41
Network latency average = 21.6812
	minimum = 7
	maximum = 41
Slowest packet = 5541
Flit latency average = 21.8865
	minimum = 7
	maximum = 41
Slowest flit = 5541
Fragmentation average = 0
	minimum = 0
	maximum = 0
Injected packet rate average = 0.0086875
	minimum = 0.004 (at node 11)
	maximum = 0.015 (at node 12)
Accepted packet rate average = 0.0088125
	minimum = 0.004 (at node 14)
	maximum = 0.015 (at node 7)
Injected flit rate average = 0.0086875
	minimum = 0.004 (at node 11)
	maximum = 0.015 (at node 12)
Accepted flit rate average= 0.0088125
	minimum = 0.004 (at node 14)
	maximum = 0.015 (at node 7)
Injected packet length average = 1
Accepted packet length average = 1
Total in-flight flits = 1 (1 measured)
latency change    = 0.0674507
throughput change = 0.0496454
Class 0:
Packet latency average = 20.6077
	minimum = 7
	maximum = 41
Network latency average = 20.6077
	minimum = 7
	maximum = 41
Slowest packet = 5541
Flit latency average = 20.7594
	minimum = 7
	maximum = 41
Slowest flit = 5541
Fragmentation average = 0
	minimum = 0
	maximum = 0
Injected packet rate average = 0.00883333
	minimum = 0.004 (at node 0)
	maximum = 0.0126667 (at node 12)
Accepted packet rate average = 0.00883333
	minimum = 0.004 (at node 0)
	maximum = 0.0133333 (at node 7)
Injected flit rate average = 0.00883333
	minimum = 0.004 (at node 0)
	maximum = 0.0126667 (at node 12)
Accepted flit rate average= 0.00883333
	minimum = 0.004 (at node 0)
	maximum = 0.0133333 (at node 7)
Injected packet length average = 1
Accepted packet length average = 1
Total in-flight flits = 3 (3 measured)
latency change    = 0.0520925
throughput change = 0.00235849
Class 0:
Packet latency average = 20.2887
	minimum = 7
	maximum = 41
Network latency average = 20.2887
	minimum = 7
	maximum = 41
Slowest packet = 5541
Flit latency average = 20.4014
	minimum = 7
	maximum = 41
Slowest flit = 5541
Fragmentation average = 0
	minimum = 0
	maximum = 0
Injected packet rate average = 0.00921875
	minimum = 0.0055 (at node 11)
	maximum = 0.014 (at node 6)
Accepted packet rate average = 0.0091875
	minimum = 0.0055 (at node 0)
	maximum = 0.0135 (at node 9)
Injected flit rate average = 0.00921875
	minimum = 0.0055 (at node 11)
	maximum = 0.014 (at node 6)
Accepted flit rate average= 0.0091875
	minimum = 0.0055 (at node 0)
	maximum = 0.0135 (at node 9)
Injected packet length average = 1
Accepted packet length average = 1
Total in-flight flits = 4 (4 measured)
latency change    = 0.0157229
throughput change = 0.0385488
Class 0:
Packet latency average = 20.2611
	minimum = 7
	maximum = 41
Network latency average = 20.2611
	minimum = 7
	maximum = 41
Slowest packet = 5541
Flit latency average = 20.3526
	minimum = 7
	maximum = 41
Slowest flit = 5541
Fragmentation average = 0
	minimum = 0
	maximum = 0
Injected packet rate average = 0.009125
	minimum = 0.0056 (at node 11)
	maximum = 0.0124 (at node 13)
Accepted packet rate average = 0.009075
	minimum = 0.0056 (at node 14)
	maximum = 0.0128 (at node 7)
Injected flit rate average = 0.009125
	minimum = 0.0056 (at node 11)
	maximum = 0.0124 (at node 13)
Accepted flit rate average= 0.009075
	minimum = 0.0056 (at node 14)
	maximum = 0.0128 (at node 7)
Injected packet length average = 1
Accepted packet length average = 1
Total in-flight flits = 5 (5 measured)
latency change    = 0.00135968
throughput change = 0.0123967
Class 0:
Packet latency average = 20.1158
	minimum = 7
	maximum = 43
Network latency average = 20.1158
	minimum = 7
	maximum = 43
Slowest packet = 5848
Flit latency average = 20.1903
	minimum = 7
	maximum = 43
Slowest flit = 5848
Fragmentation average = 0
	minimum = 0
	maximum = 0
Injected packet rate average = 0.00939583
	minimum = 0.00533333 (at node 11)
	maximum = 0.012 (at node 13)
Accepted packet rate average = 0.00941667
	minimum = 0.00533333 (at node 14)
	maximum = 0.0126667 (at node 7)
Injected flit rate average = 0.00939583
	minimum = 0.00533333 (at node 11)
	maximum = 0.012 (at node 13)
Accepted flit rate average= 0.00941667
	minimum = 0.00533333 (at node 14)
	maximum = 0.0126667 (at node 7)
Injected packet length average = 1
Accepted packet length average = 1
Total in-flight flits = 2 (2 measured)
latency change    = 0.00722308
throughput change = 0.0362832
Draining all recorded packets ...
Draining remaining packets ...
Time taken is 4552 cycles
Class 0:
Packet latency average = 22.1029
	minimum = 7
	maximum = 46
Network latency average = 22.1029
	minimum = 7
	maximum = 46
Slowest packet = 5883
Flit latency average = 22.1029
	minimum = 7
	maximum = 46
Slowest flit = 5883
Fragmentation average = 0
	minimum = 0
	maximum = 0
Injected packet rate average = 0.009
	minimum = 0.004 (at node 0)
	maximum = 0.02 (at node 12)
Accepted packet rate average = 0.0085
	minimum = 0.004 (at node 0)
	maximum = 0.02 (at node 3)
Injected flit rate average = 0.009
	minimum = 0.004 (at node 0)
	maximum = 0.02 (at node 12)
Accepted flit rate average= 0.0085
	minimum = 0.004 (at node 0)
	maximum = 0.02 (at node 3)
Injected packet length average = 1
Accepted packet length average = 1
Total in-flight flits = 4 (0 measured)
latency change    = 1
throughput change = 1
Class 0:
Packet latency average = 20.7697
	minimum = 7
	maximum = 46
Network latency average = 20.7697
	minimum = 7
	maximum = 46
Slowest packet = 5883
Flit latency average = 20.7697
	minimum = 7
	maximum = 46
Slowest flit = 5883
Fragmentation average = 0
	minimum = 0
	maximum = 0
Injected packet rate average = 0.00975
	minimum = 0.005 (at node 9)
	maximum = 0.017 (at node 12)
Accepted packet rate average = 0.0095
	minimum = 0.005 (at node 6)
	maximum = 0.016 (at node 3)
Injected flit rate average = 0.00975
	minimum = 0.005 (at node 9)
	maximum = 0.017 (at node 12)
Accepted flit rate average= 0.0095
	minimum = 0.005 (at node 6)
	maximum = 0.016 (at node 3)
Injected packet length average = 1
Accepted packet length average = 1
Total in-flight flits = 4 (0 measured)
latency change    = 0.0641898
throughput change = 0.105263
Class 0:
Packet latency average = 19.1837
	minimum = 7
	maximum = 37
Network latency average = 19.1837
	minimum = 7
	maximum = 37
Slowest packet = 6015
Flit latency average = 19.1837
	minimum = 7
	maximum = 37
Slowest flit = 6015
Fragmentation average = 0
	minimum = 0
	maximum = 0
Injected packet rate average = 0.011875
	minimum = 0.004 (at node 0)
	maximum = 0.02 (at node 11)
Accepted packet rate average = 0.01225
	minimum = 0.004 (at node 0)
	maximum = 0.022 (at node 14)
Injected flit rate average = 0.011875
	minimum = 0.004 (at node 0)
	maximum = 0.02 (at node 11)
Accepted flit rate average= 0.01225
	minimum = 0.004 (at node 0)
	maximum = 0.022 (at node 14)
Injected packet length average = 1
Accepted packet length average = 1
Total in-flight flits = 1 (0 measured)
latency change    = 0.0826778
throughput change = 0.22449
Warmed up ...Time used is 1500 cycles
Class 0:
Packet latency average = 19.2987
	minimum = 7
	maximum = 37
Network latency average = 19.2987
	minimum = 7
	maximum = 37
Slowest packet = 6116
Flit latency average = 19.3974
	minimum = 7
	maximum = 37
Slowest flit = 6116
Fragmentation average = 0
	minimum = 0
	maximum = 0
Injected packet rate average = 0.009875
	minimum = 0.002 (at node 1)
	maximum = 0.02 (at node 6)
Accepted packet rate average = 0.00975
	minimum = 0.002 (at node 4)
	maximum = 0.018 (at node 9)
Injected flit rate average = 0.009875
	minimum = 0.002 (at node 1)
	maximum = 0.02 (at node 6)
Accepted flit rate average= 0.00975
	minimum = 0.002 (at node 4)
	maximum = 0.018 (at node 9)
Injected packet length average = 1
Accepted packet length average = 1
Total in-flight flits = 2 (2 measured)
latency change    = 0.00596039
throughput change = 0.25641
Class 0:
Packet latency average = 18.2721
	minimum = 7
	maximum = 37
Network latency average = 18.2721
	minimum = 7
	maximum = 37
Slowest packet = 6116
Flit latency average = 18.3311
	minimum = 7
	maximum = 37
Slowest flit = 6116
Fragmentation average = 0
	minimum = 0
	maximum = 0
Injected packet rate average = 0.0093125
	minimum = 0.002 (at node 13)
	maximum = 0.017 (at node 6)
Accepted packet rate average = 0.00925
	minimum = 0.003 (at node 7)
	maximum = 0.016 (at node 9)
Injected flit rate average = 0.0093125
	minimum = 0.002 (at node 13)
	maximum = 0.017 (at node 6)
Accepted flit rate average= 0.00925
	minimum = 0.003 (at node 7)
	maximum = 0.016 (at node 9)
Injected packet length average = 1
Accepted packet length average = 1
Total in-flight flits = 2 (2 measured)
latency change    = 0.0561836
throughput change = 0.0540541
Class 0:
Packet latency average = 19.3689
	minimum = 7
	maximum = 45
Network latency average = 19.3689
	minimum = 7
	maximum = 45
Slowest packet = 6286
Flit latency average = 19.4027
	minimum = 7
	maximum = 45
Slowest flit = 6286
Fragmentation average = 0
	minimum = 0
	maximum = 0
Injected packet rate average = 0.00954167
	minimum = 0.00533333 (at node 13)
	maximum = 0.0126667 (at node 6)
Accepted packet rate average = 0.00941667
	minimum = 0.00466667 (at node 7)
	maximum = 0.0126667 (at node 9)
Injected flit rate average = 0.00954167
	minimum = 0.00533333 (at node 13)
	maximum = 0.0126667 (at node 6)
Accepted flit rate average= 0.00941667
	minimum = 0.00466667 (at node 7)
	maximum = 0.0126667 (at node 9)
Injected packet length average = 1
Accepted packet length average = 1
Total in-flight flits = 4 (4 measured)
latency change    = 0.0566259
throughput change = 0.0176991
Class 0:
Packet latency average = 19.2057
	minimum = 7
	maximum = 45
Network latency average = 19.2057
	minimum = 7
	maximum = 45
Slowest packet = 6286
Flit latency average = 19.2303
	minimum = 7
	maximum = 45
Slowest flit = 6286
Fragmentation average = 0
	minimum = 0
	maximum = 0
Injected packet rate average = 0.00996875
	minimum = 0.0065 (at node 13)
	maximum = 0.013 (at node 0)
Accepted packet rate average = 0.00990625
	minimum = 0.007 (at node 7)
	maximum = 0.013 (at node 0)
Injected flit rate average = 0.00996875
	minimum = 0.0065 (at node 13)
	maximum = 0.013 (at node 0)
Accepted flit rate average= 0.00990625
	minimum = 0.007 (at node 7)
	maximum = 0.013 (at node 0)
Injected packet length average = 1
Accepted packet length average = 1
Total in-flight flits = 3 (3 measured)
latency change    = 0.0084971
throughput change = 0.0494217
Class 0:
Packet latency average = 19.3215
	minimum = 7
	maximum = 45
Network latency average = 19.3215
	minimum = 7
	maximum = 45
Slowest packet = 6286
Flit latency average = 19.3409
	minimum = 7
	maximum = 45
Slowest flit = 6286
Fragmentation average = 0
	minimum = 0
	maximum = 0
Injected packet rate average = 0.010025
	minimum = 0.0064 (at node 5)
	maximum = 0.0136 (at node 0)
Accepted packet rate average = 0.0099
	minimum = 0.0064 (at node 5)
	maximum = 0.0132 (at node 0)
Injected flit rate average = 0.010025
	minimum = 0.0064 (at node 5)
	maximum = 0.0136 (at node 0)
Accepted flit rate average= 0.0099
	minimum = 0.0064 (at node 5)
	maximum = 0.0132 (at node 0)
Injected packet length average = 1
Accepted packet length average = 1
Total in-flight flits = 6 (6 measured)
latency change    = 0.0059945
throughput change = 0.000631313
Class 0:
Packet latency average = 19.4887
	minimum = 7
	maximum = 45
Network latency average = 19.4887
	minimum = 7
	maximum = 45
Slowest packet = 6286
Flit latency average = 19.5041
	minimum = 7
	maximum = 45
Slowest flit = 6286
Fragmentation average = 0
	minimum = 0
	maximum = 0
Injected packet rate average = 0.0101875
	minimum = 0.00666667 (at node 5)
	maximum = 0.014 (at node 7)
Accepted packet rate average = 0.010125
	minimum = 0.00666667 (at node 5)
	maximum = 0.014 (at node 13)
Injected flit rate average = 0.0101875
	minimum = 0.00666667 (at node 5)
	maximum = 0.014 (at node 7)
Accepted flit rate average= 0.010125
	minimum = 0.00666667 (at node 5)
	maximum = 0.014 (at node 13)
Injected packet length average = 1
Accepted packet length average = 1
Total in-flight flits = 4 (4 measured)
latency change    = 0.00857631
throughput change = 0.0222222
Draining all recorded packets ...
Draining remaining packets ...
Time taken is 4561 cycles
Class 0:
Packet latency average = 20.6709
	minimum = 7
	maximum = 37
Network latency average = 20.6709
	minimum = 7
	maximum = 37
Slowest packet = 6606
Flit latency average = 20.6709
	minimum = 7
	maximum = 37
Slowest flit = 6606
Fragmentation average = 0
	minimum = 0
	maximum = 0
Injected packet rate average = 0.01
	minimum = 0.002 (at node 0)
	maximum = 0.018 (at node 4)
Accepted packet rate average = 0.009875
	minimum = 0.002 (at node 0)
	maximum = 0.018 (at node 1)
Injected flit rate average = 0.01
	minimum = 0.002 (at node 0)
	maximum = 0.018 (at node 4)
Accepted flit rate average= 0.009875
	minimum = 0.002 (at node 0)
	maximum = 0.018 (at node 1)
Injected packet length average = 1
Accepted packet length average = 1
Total in-flight flits = 1 (0 measured)
latency change    = 1
throughput change = 1
Class 0:
Packet latency average = 20.8846
	minimum = 7
	maximum = 44
Network latency average = 20.8846
	minimum = 7
	maximum = 44
Slowest packet = 6708
Flit latency average = 20.8846
	minimum = 7
	maximum = 44
Slowest flit = 6708
Fragmentation average = 0
	minimum = 0
	maximum = 0
Injected packet rate average = 0.009875
	minimum = 0.003 (at node 0)
	maximum = 0.016 (at node 4)
Accepted packet rate average = 0.00975
	minimum = 0.003 (at node 0)
	maximum = 0.015 (at node 1)
Injected flit rate average = 0.009875
	minimum = 0.003 (at node 0)
	maximum = 0.016 (at node 4)
Accepted flit rate average= 0.00975
	minimum = 0.003 (at node 0)
	maximum = 0.015 (at node 1)
Injected packet length average = 1
Accepted packet length average = 1
Total in-flight flits = 2 (0 measured)
latency change    = 0.0102338
throughput change = 0.0128205
Class 0:
Packet latency average = 18.0714
	minimum = 7
	maximum = 41
Network latency average = 18.0714
	minimum = 7
	maximum = 41
Slowest packet = 6793
Flit latency average = 18.0714
	minimum = 7
	maximum = 41
Slowest flit = 6793
Fragmentation average = 0
	minimum = 0
	maximum = 0
Injected packet rate average = 0.010375
	minimum = 0.002 (at node 13)
	maximum = 0.014 (at node 1)
Accepted packet rate average = 0.0105
	minimum = 0.002 (at node 7)
	maximum = 0.016 (at node 1)
Injected flit rate average = 0.010375
	minimum = 0.002 (at node 13)
	maximum = 0.014 (at node 1)
Accepted flit rate average= 0.0105
	minimum = 0.002 (at node 7)
	maximum = 0.016 (at node 1)
Injected packet length average = 1
Accepted packet length average = 1
Total in-flight flits = 1 (0 measured)
latency change    = 0.15567
throughput change = 0.0714286
Warmed up ...Time used is 1500 cycles
Class 0:
Packet latency average = 19.4783
	minimum = 7
	maximum = 37
Network latency average = 19.4783
	minimum = 7
	maximum = 37
Slowest packet = 6856
Flit latency average = 19.7286
	minimum = 7
	maximum = 37
Slowest flit = 6843
Fragmentation average = 0
	minimum = 0
	maximum = 0
Injected packet rate average = 0.009
	minimum = 0.004 (at node 5)
	maximum = 0.012 (at node 0)
Accepted packet rate average = 0.00875
	minimum = 0.004 (at node 2)
	maximum = 0.012 (at node 0)
Injected flit rate average = 0.009
	minimum = 0.004 (at node 5)
	maximum = 0.012 (at node 0)
Accepted flit rate average= 0.00875
	minimum = 0.004 (at node 2)
	maximum = 0.012 (at node 0)
Injected packet length average = 1
Accepted packet length average = 1
Total in-flight flits = 3 (3 measured)
latency change    = 0.0722258
throughput change = 0.2
Class 0:
Packet latency average = 18.8616
	minimum = 7
	maximum = 50
Network latency average = 18.8616
	minimum = 7
	maximum = 50
Slowest packet = 6956
Flit latency average = 18.975
	minimum = 7
	maximum = 50
Slowest flit = 6956
Fragmentation average = 0
	minimum = 0
	maximum = 0
Injected packet rate average = 0.0100625
	minimum = 0.004 (at node 7)
	maximum = 0.016 (at node 14)
Accepted packet rate average = 0.01
	minimum = 0.004 (at node 13)
	maximum = 0.016 (at node 11)
Injected flit rate average = 0.0100625
	minimum = 0.004 (at node 7)
	maximum = 0.016 (at node 14)
Accepted flit rate average= 0.01
	minimum = 0.004 (at node 13)
	maximum = 0.016 (at node 11)
Injected packet length average = 1
Accepted packet length average = 1
Total in-flight flits = 2 (2 measured)
latency change    = 0.0326921
throughput change = 0.125
Class 0:
Packet latency average = 19.6067
	minimum = 7
	maximum = 50
Network latency average = 19.6067
	minimum = 7
	maximum = 50
Slowest packet = 6956
Flit latency average = 19.6792
	minimum = 7
	maximum = 50
Slowest flit = 6956
Fragmentation average = 0
	minimum = 0
	maximum = 0
Injected packet rate average = 0.010125
	minimum = 0.00666667 (at node 11)
	maximum = 0.0146667 (at node 14)
Accepted packet rate average = 0.01
	minimum = 0.00666667 (at node 13)
	maximum = 0.014 (at node 11)
Injected flit rate average = 0.010125
	minimum = 0.00666667 (at node 11)
	maximum = 0.0146667 (at node 14)
Accepted flit rate average= 0.01
	minimum = 0.00666667 (at node 13)
	maximum = 0.014 (at node 11)
Injected packet length average = 1
Accepted packet length average = 1
Total in-flight flits = 4 (4 measured)
latency change    = 0.0380003
throughput change = 0
Class 0:
Packet latency average = 19.2956
	minimum = 7
	maximum = 50
Network latency average = 19.2956
	minimum = 7
	maximum = 50
Slowest packet = 6956
Flit latency average = 19.3511
	minimum = 7
	maximum = 50
Slowest flit = 6956
Fragmentation average = 0
	minimum = 0
	maximum = 0
Injected packet rate average = 0.0099375
	minimum = 0.007 (at node 7)
	maximum = 0.015 (at node 14)
Accepted packet rate average = 0.00996875
	minimum = 0.007 (at node 3)
	maximum = 0.015 (at node 11)
Injected flit rate average = 0.0099375
	minimum = 0.007 (at node 7)
	maximum = 0.015 (at node 14)
Accepted flit rate average= 0.00996875
	minimum = 0.007 (at node 3)
	maximum = 0.015 (at node 11)
Injected packet length average = 1
Accepted packet length average = 1
Total in-flight flits = 0 (0 measured)
latency change    = 0.0161227
throughput change = 0.0031348
Class 0:
Packet latency average = 19.1335
	minimum = 7
	maximum = 50
Network latency average = 19.1335
	minimum = 7
	maximum = 50
Slowest packet = 6956
Flit latency average = 19.1768
	minimum = 7
	maximum = 50
Slowest flit = 6956
Fragmentation average = 0
	minimum = 0
	maximum = 0
Injected packet rate average = 0.010375
	minimum = 0.0068 (at node 12)
	maximum = 0.0144 (at node 14)
Accepted packet rate average = 0.010325
	minimum = 0.0064 (at node 3)
	maximum = 0.0144 (at node 11)
Injected flit rate average = 0.010375
	minimum = 0.0068 (at node 12)
	maximum = 0.0144 (at node 14)
Accepted flit rate average= 0.010325
	minimum = 0.0064 (at node 3)
	maximum = 0.0144 (at node 11)
Injected packet length average = 1
Accepted packet length average = 1
Total in-flight flits = 3 (3 measured)
latency change    = 0.00847218
throughput change = 0.0345036
Draining all recorded packets ...
Draining remaining packets ...
Time taken is 4070 cycles
Class 0:
Packet latency average = 18.6667
	minimum = 7
	maximum = 46
Network latency average = 18.6667
	minimum = 7
	maximum = 46
Slowest packet = 7284
Flit latency average = 18.6667
	minimum = 7
	maximum = 46
Slowest flit = 7284
Fragmentation average = 0
	minimum = 0
	maximum = 0
Injected packet rate average = 0.011625
	minimum = 0 (at node 12)
	maximum = 0.022 (at node 2)
Accepted packet rate average = 0.011625
	minimum = 0 (at node 3)
	maximum = 0.022 (at node 8)
Injected flit rate average = 0.011625
	minimum = 0 (at node 12)
	maximum = 0.022 (at node 2)
Accepted flit rate average= 0.011625
	minimum = 0 (at node 3)
	maximum = 0.022 (at node 8)
Injected packet length average = 1
Accepted packet length average = 1
Total in-flight flits = 0 (0 measured)
latency change    = 1
throughput change = 1
Class 0:
Packet latency average = 19.6118
	minimum = 7
	maximum = 46
Network latency average = 19.6118
	minimum = 7
	maximum = 46
Slowest packet = 7284
Flit latency average = 19.6118
	minimum = 7
	maximum = 46
Slowest flit = 7284
Fragmentation average = 0
	minimum = 0
	maximum = 0
Injected packet rate average = 0.0108125
	minimum = 0.006 (at node 12)
	maximum = 0.015 (at node 7)
Accepted packet rate average = 0.010625
	minimum = 0.006 (at node 3)
	maximum = 0.015 (at node 13)
Injected flit rate average = 0.0108125
	minimum = 0.006 (at node 12)
	maximum = 0.015 (at node 7)
Accepted flit rate average= 0.010625
[...]
	minimum = 7
	maximum = 37
Slowest packet = 31740
Flit latency average = 18.8116
	minimum = 7
	maximum = 37
Slowest flit = 31740
Fragmentation average = 0
	minimum = 0
	maximum = 0
Injected packet rate average = 0.008375
	minimum = 0.002 (at node 11)
	maximum = 0.018 (at node 6)
Accepted packet rate average = 0.008625
	minimum = 0.002 (at node 13)
	maximum = 0.018 (at node 9)
Injected flit rate average = 0.008375
	minimum = 0.002 (at node 11)
	maximum = 0.018 (at node 6)
Accepted flit rate average= 0.008625
	minimum = 0.002 (at node 13)
	maximum = 0.018 (at node 9)
Injected packet length average = 1
Accepted packet length average = 1
Total in-flight flits = 2 (0 measured)
latency change    = 0.0544951
throughput change = 0.0652174
Warmed up ...Time used is 1500 cycles
Class 0:
Packet latency average = 19.4247
	minimum = 7
	maximum = 44
Network latency average = 19.4247
	minimum = 7
	maximum = 44
Slowest packet = 31854
Flit latency average = 19.76
	minimum = 7
	maximum = 44
Slowest flit = 31854
Fragmentation average = 0
	minimum = 0
	maximum = 0
Injected packet rate average = 0.009625
	minimum = 0.002 (at node 7)
	maximum = 0.02 (at node 6)
Accepted packet rate average = 0.009375
	minimum = 0.002 (at node 13)
	maximum = 0.016 (at node 9)
Injected flit rate average = 0.009625
	minimum = 0.002 (at node 7)
	maximum = 0.02 (at node 6)
Accepted flit rate average= 0.009375
	minimum = 0.002 (at node 13)
	maximum = 0.016 (at node 9)
Injected packet length average = 1
Accepted packet length average = 1
Total in-flight flits = 4 (4 measured)
latency change    = 0.0315611
throughput change = 0.08
Class 0:
Packet latency average = 19.1538
	minimum = 7
	maximum = 44
Network latency average = 19.1538
	minimum = 7
	maximum = 44
Slowest packet = 31854
Flit latency average = 19.331
	minimum = 7
	maximum = 44
Slowest flit = 31854
Fragmentation average = 0
	minimum = 0
	maximum = 0
Injected packet rate average = 0.0090625
	minimum = 0.004 (at node 14)
	maximum = 0.013 (at node 3)
Accepted packet rate average = 0.0090625
	minimum = 0.004 (at node 11)
	maximum = 0.012 (at node 5)
Injected flit rate average = 0.0090625
	minimum = 0.004 (at node 14)
	maximum = 0.013 (at node 3)
Accepted flit rate average= 0.0090625
	minimum = 0.004 (at node 11)
	maximum = 0.012 (at node 5)
Injected packet length average = 1
Accepted packet length average = 1
Total in-flight flits = 2 (2 measured)
latency change    = 0.0141387
throughput change = 0.0344828
Class 0:
Packet latency average = 19.422
	minimum = 7
	maximum = 57
Network latency average = 19.422
	minimum = 7
	maximum = 57
Slowest packet = 31977
Flit latency average = 19.5364
	minimum = 7
	maximum = 57
Slowest flit = 31977
Fragmentation average = 0
	minimum = 0
	maximum = 0
Injected packet rate average = 0.009125
	minimum = 0.00533333 (at node 8)
	maximum = 0.0113333 (at node 2)
Accepted packet rate average = 0.00916667
	minimum = 0.00533333 (at node 2)
	maximum = 0.0113333 (at node 8)
Injected flit rate average = 0.009125
	minimum = 0.00533333 (at node 8)
	maximum = 0.0113333 (at node 2)
Accepted flit rate average= 0.00916667
	minimum = 0.00533333 (at node 2)
	maximum = 0.0113333 (at node 8)
Injected packet length average = 1
Accepted packet length average = 1
Total in-flight flits = 1 (1 measured)
latency change    = 0.0138076
throughput change = 0.0113636
Class 0:
Packet latency average = 19.2847
	minimum = 7
	maximum = 57
Network latency average = 19.2847
	minimum = 7
	maximum = 57
Slowest packet = 31977
Flit latency average = 19.3724
	minimum = 7
	maximum = 57
Slowest flit = 31977
Fragmentation average = 0
	minimum = 0
	maximum = 0
Injected packet rate average = 0.00909375
	minimum = 0.007 (at node 11)
	maximum = 0.012 (at node 10)
Accepted packet rate average = 0.0090625
	minimum = 0.007 (at node 2)
	maximum = 0.012 (at node 10)
Injected flit rate average = 0.00909375
	minimum = 0.007 (at node 11)
	maximum = 0.012 (at node 10)
Accepted flit rate average= 0.0090625
	minimum = 0.007 (at node 2)
	maximum = 0.012 (at node 10)
Injected packet length average = 1
Accepted packet length average = 1
Total in-flight flits = 3 (3 measured)
latency change    = 0.00711942
throughput change = 0.0114943
Draining all recorded packets ...
Draining remaining packets ...
Time taken is 3554 cycles
Class 0:
Packet latency average = 20.2
	minimum = 7
	maximum = 40
Network latency average = 20.2
	minimum = 7
	maximum = 40
Slowest packet = 32141
Flit latency average = 20.2
	minimum = 7
	maximum = 40
Slowest flit = 32141
Fragmentation average = 0
	minimum = 0
	maximum = 0
Injected packet rate average = 0.01
	minimum = 0.004 (at node 1)
	maximum = 0.014 (at node 3)
Accepted packet rate average = 0.01
	minimum = 0.004 (at node 4)
	maximum = 0.014 (at node 2)
Injected flit rate average = 0.01
	minimum = 0.004 (at node 1)
	maximum = 0.014 (at node 3)
Accepted flit rate average= 0.01
	minimum = 0.004 (at node 4)
	maximum = 0.014 (at node 2)
Injected packet length average = 1
Accepted packet length average = 1
Total in-flight flits = 0 (0 measured)
latency change    = 1
throughput change = 1
Class 0:
Packet latency average = 19.6708
	minimum = 7
	maximum = 45
Network latency average = 19.6708
	minimum = 7
	maximum = 45
Slowest packet = 32218
Flit latency average = 19.6708
	minimum = 7
	maximum = 45
Slowest flit = 32218
Fragmentation average = 0
	minimum = 0
	maximum = 0
Injected packet rate average = 0.010375
	minimum = 0.006 (at node 0)
	maximum = 0.015 (at node 2)
Accepted packet rate average = 0.0100625
	minimum = 0.006 (at node 0)
	maximum = 0.015 (at node 8)
Injected flit rate average = 0.010375
	minimum = 0.006 (at node 0)
	maximum = 0.015 (at node 2)
Accepted flit rate average= 0.0100625
	minimum = 0.006 (at node 0)
	maximum = 0.015 (at node 8)
Injected packet length average = 1
Accepted packet length average = 1
Total in-flight flits = 5 (0 measured)
latency change    = 0.0269024
throughput change = 0.00621118
Class 0:
Packet latency average = 21.5316
	minimum = 7
	maximum = 39
Network latency average = 21.5316
	minimum = 7
	maximum = 39
Slowest packet = 32290
Flit latency average = 21.5316
	minimum = 7
	maximum = 39
Slowest flit = 32290
Fragmentation average = 0
	minimum = 0
	maximum = 0
Injected packet rate average = 0.0095
	minimum = 0.004 (at node 13)
	maximum = 0.026 (at node 8)
Accepted packet rate average = 0.009875
	minimum = 0.004 (at node 15)
	maximum = 0.022 (at node 2)
Injected flit rate average = 0.0095
	minimum = 0.004 (at node 13)
	maximum = 0.026 (at node 8)
Accepted flit rate average= 0.009875
	minimum = 0.004 (at node 15)
	maximum = 0.022 (at node 2)
Injected packet length average = 1
Accepted packet length average = 1
Total in-flight flits = 2 (0 measured)
latency change    = 0.0864234
throughput change = 0.0189873
Warmed up ...Time used is 1500 cycles
Class 0:
Packet latency average = 17.9459
	minimum = 7
	maximum = 42
Network latency average = 17.9459
	minimum = 7
	maximum = 42
Slowest packet = 32409
Flit latency average = 18.1842
	minimum = 7
	maximum = 42
Slowest flit = 32409
Fragmentation average = 0
	minimum = 0
	maximum = 0
Injected packet rate average = 0.009625
	minimum = 0.002 (at node 12)
	maximum = 0.018 (at node 5)
Accepted packet rate average = 0.0095
	minimum = 0.002 (at node 3)
	maximum = 0.018 (at node 2)
Injected flit rate average = 0.009625
	minimum = 0.002 (at node 12)
	maximum = 0.018 (at node 5)
Accepted flit rate average= 0.0095
	minimum = 0.002 (at node 3)
	maximum = 0.018 (at node 2)
Injected packet length average = 1
Accepted packet length average = 1
Total in-flight flits = 3 (3 measured)
latency change    = 0.199806
throughput change = 0.0394737
Class 0:
Packet latency average = 18.227
	minimum = 7
	maximum = 42
Network latency average = 18.227
	minimum = 7
	maximum = 42
Slowest packet = 32409
Flit latency average = 18.3497
	minimum = 7
	maximum = 42
Slowest flit = 32409
Fragmentation average = 0
	minimum = 0
	maximum = 0
Injected packet rate average = 0.009125
	minimum = 0.006 (at node 0)
	maximum = 0.018 (at node 9)
Accepted packet rate average = 0.0089375
	minimum = 0.004 (at node 3)
	maximum = 0.018 (at node 6)
Injected flit rate average = 0.009125
	minimum = 0.006 (at node 0)
	maximum = 0.018 (at node 9)
Accepted flit rate average= 0.0089375
	minimum = 0.004 (at node 3)
	maximum = 0.018 (at node 6)
Injected packet length average = 1
Accepted packet length average = 1
Total in-flight flits = 5 (5 measured)
latency change    = 0.015417
throughput change = 0.0629371
Class 0:
Packet latency average = 19.5
	minimum = 7
	maximum = 42
Network latency average = 19.5
	minimum = 7
	maximum = 42
Slowest packet = 32409
Flit latency average = 19.5658
	minimum = 7
	maximum = 42
Slowest flit = 32409
Fragmentation average = 0
	minimum = 0
	maximum = 0
Injected packet rate average = 0.00954167
	minimum = 0.006 (at node 0)
	maximum = 0.0153333 (at node 9)
Accepted packet rate average = 0.0095
	minimum = 0.006 (at node 0)
	maximum = 0.0153333 (at node 6)
Injected flit rate average = 0.00954167
	minimum = 0.006 (at node 0)
	maximum = 0.0153333 (at node 9)
Accepted flit rate average= 0.0095
	minimum = 0.006 (at node 0)
	maximum = 0.0153333 (at node 6)
Injected packet length average = 1
Accepted packet length average = 1
Total in-flight flits = 3 (3 measured)
latency change    = 0.0652846
throughput change = 0.0592105
Class 0:
Packet latency average = 19.1502
	minimum = 7
	maximum = 42
Network latency average = 19.1502
	minimum = 7
	maximum = 42
Slowest packet = 32409
Flit latency average = 19.2
	minimum = 7
	maximum = 42
Slowest flit = 32409
Fragmentation average = 0
	minimum = 0
	maximum = 0
Injected packet rate average = 0.009875
	minimum = 0.006 (at node 7)
	maximum = 0.0155 (at node 9)
Accepted packet rate average = 0.00984375
	minimum = 0.006 (at node 13)
	maximum = 0.0155 (at node 6)
Injected flit rate average = 0.009875
	minimum = 0.006 (at node 7)
	maximum = 0.0155 (at node 9)
Accepted flit rate average= 0.00984375
	minimum = 0.006 (at node 13)
	maximum = 0.0155 (at node 6)
Injected packet length average = 1
Accepted packet length average = 1
Total in-flight flits = 3 (3 measured)
latency change    = 0.0182683
throughput change = 0.0349206
Class 0:
Packet latency average = 19.4562
	minimum = 7
	maximum = 42
Network latency average = 19.4562
	minimum = 7
	maximum = 42
Slowest packet = 32409
Flit latency average = 19.4949
	minimum = 7
	maximum = 42
Slowest flit = 32409
Fragmentation average = 0
	minimum = 0
	maximum = 0
Injected packet rate average = 0.009775
	minimum = 0.0064 (at node 1)
	maximum = 0.0156 (at node 9)
Accepted packet rate average = 0.00975
	minimum = 0.0064 (at node 4)
	maximum = 0.0156 (at node 6)
Injected flit rate average = 0.009775
	minimum = 0.0064 (at node 1)
	maximum = 0.0156 (at node 9)
Accepted flit rate average= 0.00975
	minimum = 0.0064 (at node 4)
	maximum = 0.0156 (at node 6)
Injected packet length average = 1
Accepted packet length average = 1
Total in-flight flits = 3 (3 measured)
latency change    = 0.015729
throughput change = 0.00961538
Class 0:
Packet latency average = 19.5606
	minimum = 7
	maximum = 42
Network latency average = 19.5606
	minimum = 7
	maximum = 42
Slowest packet = 32409
Flit latency average = 19.5927
	minimum = 7
	maximum = 42
Slowest flit = 32409
Fragmentation average = 0
	minimum = 0
	maximum = 0
Injected packet rate average = 0.00966667
	minimum = 0.00733333 (at node 1)
	maximum = 0.0143333 (at node 9)
Accepted packet rate average = 0.00966667
	minimum = 0.00733333 (at node 4)
	maximum = 0.0143333 (at node 6)
Injected flit rate average = 0.00966667
	minimum = 0.00733333 (at node 1)
	maximum = 0.0143333 (at node 9)
Accepted flit rate average= 0.00966667
	minimum = 0.00733333 (at node 4)
	maximum = 0.0143333 (at node 6)
Injected packet length average = 1
Accepted packet length average = 1
Total in-flight flits = 2 (2 measured)
latency change    = 0.00533831
throughput change = 0.00862069
Draining all recorded packets ...
Draining remaining packets ...
Time taken is 4538 cycles
Class 0:
Packet latency average = 18.5294
	minimum = 7
	maximum = 41
Network latency average = 18.5294
	minimum = 7
	maximum = 41
Slowest packet = 32878
Flit latency average = 18.5294
	minimum = 7
	maximum = 41
Slowest flit = 32878
Fragmentation average = 0
	minimum = 0
	maximum = 0
Injected packet rate average = 0.011125
	minimum = 0.004 (at node 0)
	maximum = 0.018 (at node 11)
Accepted packet rate average = 0.010625
	minimum = 0.004 (at node 0)
	maximum = 0.018 (at node 15)
Injected flit rate average = 0.011125
	minimum = 0.004 (at node 0)
	maximum = 0.018 (at node 11)
Accepted flit rate average= 0.010625
	minimum = 0.004 (at node 0)
	maximum = 0.018 (at node 15)
Injected packet length average = 1
Accepted packet length average = 1
Total in-flight flits = 4 (0 measured)
latency change    = 1
throughput change = 1
Class 0:
Packet latency average = 19.1132
	minimum = 7
	maximum = 41
Network latency average = 19.1132
	minimum = 7
	maximum = 41
Slowest packet = 32878
Flit latency average = 19.1132
	minimum = 7
	maximum = 41
Slowest flit = 32878
Fragmentation average = 0
	minimum = 0
	maximum = 0
Injected packet rate average = 0.01
	minimum = 0.005 (at node 8)
	maximum = 0.016 (at node 11)
Accepted packet rate average = 0.0099375
	minimum = 0.005 (at node 2)
	maximum = 0.016 (at node 14)
Injected flit rate average = 0.01
	minimum = 0.005 (at node 8)
	maximum = 0.016 (at node 11)
Accepted flit rate average= 0.0099375
	minimum = 0.005 (at node 2)
	maximum = 0.016 (at node 14)
Injected packet length average = 1
Accepted packet length average = 1
Total in-flight flits = 1 (0 measured)
latency change    = 0.0305441
throughput change = 0.0691824
Class 0:
Packet latency average = 19.8406
	minimum = 7
	maximum = 37
Network latency average = 19.8406
	minimum = 7
	maximum = 37
Slowest packet = 32973
Flit latency average = 19.8406
	minimum = 7
	maximum = 37
Slowest flit = 32973
Fragmentation average = 0
	minimum = 0
	maximum = 0
Injected packet rate average = 0.009
	minimum = 0.004 (at node 0)
	maximum = 0.016 (at node 7)
Accepted packet rate average = 0.008625
	minimum = 0.004 (at node 0)
	maximum = 0.016 (at node 2)
Injected flit rate average = 0.009
	minimum = 0.004 (at node 0)
	maximum = 0.016 (at node 7)
Accepted flit rate average= 0.008625
	minimum = 0.004 (at node 0)
	maximum = 0.016 (at node 2)
Injected packet length average = 1
Accepted packet length average = 1
Total in-flight flits = 4 (0 measured)
latency change    = 0.0366608
throughput change = 0.152174
Warmed up ...Time used is 1500 cycles
Class 0:
Packet latency average = 22.8644
	minimum = 7
	maximum = 41
Network latency average = 22.8644
	minimum = 7
	maximum = 41
Slowest packet = 33062
Flit latency average = 22.9683
	minimum = 7
	maximum = 41
Slowest flit = 33062
Fragmentation average = 0
	minimum = 0
	maximum = 0
Injected packet rate average = 0.0075
	minimum = 0.002 (at node 1)
	maximum = 0.018 (at node 3)
Accepted packet rate average = 0.007875
	minimum = 0.002 (at node 4)
	maximum = 0.022 (at node 12)
Injected flit rate average = 0.0075
	minimum = 0.002 (at node 1)
	maximum = 0.018 (at node 3)
Accepted flit rate average= 0.007875
	minimum = 0.002 (at node 4)
	maximum = 0.022 (at node 12)
Injected packet length average = 1
Accepted packet length average = 1
Total in-flight flits = 1 (1 measured)
latency change    = 0.13225
throughput change = 0.0952381
Class 0:
Packet latency average = 20.993
	minimum = 7
	maximum = 41
Network latency average = 20.993
	minimum = 7
	maximum = 41
Slowest packet = 33062
Flit latency average = 21.089
	minimum = 7
	maximum = 41
Slowest flit = 33062
Fragmentation average = 0
	minimum = 0
	maximum = 0
Injected packet rate average = 0.009
	minimum = 0.004 (at node 1)
	maximum = 0.014 (at node 12)
Accepted packet rate average = 0.009125
	minimum = 0.004 (at node 4)
	maximum = 0.015 (at node 12)
Injected flit rate average = 0.009
	minimum = 0.004 (at node 1)
	maximum = 0.014 (at node 12)
Accepted flit rate average= 0.009125
	minimum = 0.004 (at node 4)
	maximum = 0.015 (at node 12)
Injected packet length average = 1
Accepted packet length average = 1
Total in-flight flits = 2 (2 measured)
latency change    = 0.0891465
throughput change = 0.136986
Class 0:
Packet latency average = 20.4395
	minimum = 7
	maximum = 41
Network latency average = 20.4395
	minimum = 7
	maximum = 41
Slowest packet = 33062
Flit latency average = 20.511
	minimum = 7
	maximum = 41
Slowest flit = 33062
Fragmentation average = 0
	minimum = 0
	maximum = 0
Injected packet rate average = 0.00945833
	minimum = 0.00666667 (at node 0)
	maximum = 0.0126667 (at node 12)
Accepted packet rate average = 0.00945833
	minimum = 0.006 (at node 4)
	maximum = 0.0126667 (at node 3)
Injected flit rate average = 0.00945833
	minimum = 0.00666667 (at node 0)
	maximum = 0.0126667 (at node 12)
Accepted flit rate average= 0.00945833
	minimum = 0.006 (at node 4)
	maximum = 0.0126667 (at node 3)
Injected packet length average = 1
Accepted packet length average = 1
Total in-flight flits = 4 (4 measured)
latency change    = 0.0270798
throughput change = 0.0352423
Class 0:
Packet latency average = 20.3193
	minimum = 7
	maximum = 41
Network latency average = 20.3193
	minimum = 7
	maximum = 41
Slowest packet = 33062
Flit latency average = 20.3772
	minimum = 7
	maximum = 41
Slowest flit = 33062
Fragmentation average = 0
	minimum = 0
	maximum = 0
Injected packet rate average = 0.009
	minimum = 0.006 (at node 0)
	maximum = 0.0125 (at node 4)
Accepted packet rate average = 0.00903125
	minimum = 0.006 (at node 0)
	maximum = 0.0125 (at node 1)
Injected flit rate average = 0.009
	minimum = 0.006 (at node 0)
	maximum = 0.0125 (at node 4)
Accepted flit rate average= 0.00903125
	minimum = 0.006 (at node 0)
	maximum = 0.0125 (at node 1)
Injected packet length average = 1
Accepted packet length average = 1
Total in-flight flits = 3 (3 measured)
latency change    = 0.00591377
throughput change = 0.0472895
Class 0:
Packet latency average = 20.5249
	minimum = 7
	maximum = 44
Network latency average = 20.5249
	minimum = 7
	maximum = 44
Slowest packet = 33344
Flit latency average = 20.5683
	minimum = 7
	maximum = 44
Slowest flit = 33344
Fragmentation average = 0
	minimum = 0
	maximum = 0
Injected packet rate average = 0.009125
	minimum = 0.0064 (at node 1)
	maximum = 0.0128 (at node 3)
Accepted packet rate average = 0.00915
	minimum = 0.0064 (at node 4)
	maximum = 0.0136 (at node 12)
Injected flit rate average = 0.009125
	minimum = 0.0064 (at node 1)
	maximum = 0.0128 (at node 3)
Accepted flit rate average= 0.00915
	minimum = 0.0064 (at node 4)
	maximum = 0.0136 (at node 12)
Injected packet length average = 1
Accepted packet length average = 1
Total in-flight flits = 3 (3 measured)
latency change    = 0.0100153
throughput change = 0.0129781
Draining all recorded packets ...
Draining remaining packets ...
Time taken is 4057 cycles
====== Overall Traffic Statistics ======
====== Traffic class 0 ======
Packet latency average = 19.6986 (50 samples)
	minimum = 7 (50 samples)
	maximum = 45.46 (50 samples)
Network latency average = 19.6986 (50 samples)
	minimum = 7 (50 samples)
	maximum = 45.46 (50 samples)
Flit latency average = 19.7369 (50 samples)
	minimum = 7 (50 samples)
	maximum = 45.46 (50 samples)
Fragmentation average = 0 (50 samples)
	minimum = 0 (50 samples)
	maximum = 0 (50 samples)
Injected packet rate average = 0.0100031 (50 samples)
	minimum = 0.00691657 (50 samples)
	maximum = 0.0136177 (50 samples)
Accepted packet rate average = 0.00999664 (50 samples)
	minimum = 0.00687743 (50 samples)
	maximum = 0.0136263 (50 samples)
Injected flit rate average = 0.0100031 (50 samples)
	minimum = 0.00691657 (50 samples)
	maximum = 0.0136177 (50 samples)
Accepted flit rate average = 0.00999664 (50 samples)
	minimum = 0.00687743 (50 samples)
	maximum = 0.0136263 (50 samples)
Injected packet size average = 1 (50 samples)
Accepted packet size average = 1 (50 samples)
Hops average = 3.49298 (50 samples)
Total run time 1.1106
