BEGIN Configuration File: /tmp/tmpm28ufso6.cfg
topology = mesh;
k = 4;
n = 2;
routing_function = planar_adapt;
num_vcs = 4;
vc_buf_size = 4;
wait_for_tail_credit = 1;
vc_allocator = islip;
sw_allocator = islip;
alloc_iters = 1;
credit_delay = 2;
routing_delay = 1;
vc_alloc_delay = 1;
sw_alloc_delay = 1;
input_speedup = 2;
output_speedup = 1;
internal_speedup = 1.0;
traffic = uniform;
packet_size = 1;
sim_type = latency;
injection_rate = 0.01;
warmup_periods = 3;
sample_period = 500;
sim_count = 50;
seed = 2;
link_failures = 2;
fail_seed = 202;

END Configuration File: /tmp/tmpm28ufso6.cfg
failure at node 4, channel 2 (1/2)
failure at node 13, channel 0 (2/2)
Class 0:
Packet latency average = 18.6667
	minimum = 7
	maximum = 37
Network latency average = 18.6667
	minimum = 7
	maximum = 37
Slowest packet = 5
Flit latency average = 18.6667
	minimum = 7
	maximum = 37
Slowest flit = 5
Fragmentation average = 0
	minimum = 0
	maximum = 0
Injected packet rate average = 0.008125
	minimum = 0 (at node 9)
	maximum = 0.014 (at node 5)
Accepted packet rate average = 0.007875
	minimum = 0.002 (at node 5)
	maximum = 0.02 (at node 9)
Injected flit rate average = 0.008125
	minimum = 0 (at node 9)
	maximum = 0.014 (at node 5)
Accepted flit rate average= 0.007875
	minimum = 0.002 (at node 5)
	maximum = 0.02 (at node 9)
Injected packet length average = 1
Accepted packet length average = 1
Total in-flight flits = 2 (0 measured)
latency change    = 1
throughput change = 1
Class 0:
Packet latency average = 18.6515
	minimum = 7
	maximum = 38
Network latency average = 18.6515
	minimum = 7
	maximum = 38
Slowest packet = 76
Flit latency average = 18.6515
	minimum = 7
	maximum = 38
Slowest flit = 76
Fragmentation average = 0
	minimum = 0
	maximum = 0
Injected packet rate average = 0.008625
	minimum = 0.003 (at node 2)
	maximum = 0.015 (at node 13)
Accepted packet rate average = 0.00825
	minimum = 0.004 (at node 6)
	maximum = 0.015 (at node 9)
Injected flit rate average = 0.008625
	minimum = 0.003 (at node 2)
	maximum = 0.015 (at node 13)
Accepted flit rate average= 0.00825
	minimum = 0.004 (at node 6)
	maximum = 0.015 (at node 9)
Injected packet length average = 1
Accepted packet length average = 1
Total in-flight flits = 6 (0 measured)
latency change    = 0.000812348
throughput change = 0.0454545
Class 0:
Packet latency average = 19.6786
	minimum = 7
	maximum = 42
Network latency average = 19.6786
	minimum = 7
	maximum = 42
Slowest packet = 140
Flit latency average = 19.6786
	minimum = 7
	maximum = 42
Slowest flit = 140
Fragmentation average = 0
	minimum = 0
	maximum = 0
Injected packet rate average = 0.01
	minimum = 0.002 (at node 3)
	maximum = 0.022 (at node 13)
Accepted packet rate average = 0.0105
	minimum = 0.006 (at node 5)
	maximum = 0.016 (at node 15)
Injected flit rate average = 0.01
	minimum = 0.002 (at node 3)
	maximum = 0.022 (at node 13)
Accepted flit rate average= 0.0105
	minimum = 0.006 (at node 5)
	maximum = 0.016 (at node 15)
Injected packet length average = 1
Accepted packet length average = 1
Total in-flight flits = 2 (0 measured)
latency change    = 0.0521916
throughput change = 0.214286
Warmed up ...Time used is 1500 cycles
Class 0:
Packet latency average = 19.9419
	minimum = 7
	maximum = 37
Network latency average = 19.9419
	minimum = 7
	maximum = 37
Slowest packet = 221
Flit latency average = 20.1591
	minimum = 7
	maximum = 37
Slowest flit = 216
Fragmentation average = 0
	minimum = 0
	maximum = 0
Injected packet rate average = 0.01125
	minimum = 0.004 (at node 15)
	maximum = 0.022 (at node 10)
Accepted packet rate average = 0.011
	minimum = 0.004 (at node 3)
	maximum = 0.016 (at node 4)
Injected flit rate average = 0.01125
	minimum = 0.004 (at node 15)
	maximum = 0.022 (at node 10)
Accepted flit rate average= 0.011
	minimum = 0.004 (at node 3)
	maximum = 0.016 (at node 4)
Injected packet length average = 1
Accepted packet length average = 1
Total in-flight flits = 4 (4 measured)
latency change    = 0.0132028
throughput change = 0.0454545
Class 0:
Packet latency average = 20.0542
	minimum = 7
	maximum = 42
Network latency average = 20.0542
	minimum = 7
	maximum = 42
Slowest packet = 367
Flit latency average = 20.1667
	minimum = 7
	maximum = 42
Slowest flit = 367
Fragmentation average = 0
	minimum = 0
	maximum = 0
Injected packet rate average = 0.0105
	minimum = 0.006 (at node 2)
	maximum = 0.015 (at node 3)
Accepted packet rate average = 0.0105
	minimum = 0.004 (at node 12)
	maximum = 0.014 (at node 6)
Injected flit rate average = 0.0105
	minimum = 0.006 (at node 2)
	maximum = 0.015 (at node 3)
Accepted flit rate average= 0.0105
	minimum = 0.004 (at node 12)
	maximum = 0.014 (at node 6)
Injected packet length average = 1
Accepted packet length average = 1
Total in-flight flits = 2 (2 measured)
latency change    = 0.00560263
throughput change = 0.047619
Class 0:
Packet latency average = 20.1574
	minimum = 7
	maximum = 42
Network latency average = 20.1574
	minimum = 7
	maximum = 42
Slowest packet = 367
Flit latency average = 20.2363
	minimum = 7
	maximum = 42
Slowest flit = 367
Fragmentation average = 0
	minimum = 0
	maximum = 0
Injected packet rate average = 0.00983333
	minimum = 0.00666667 (at node 1)
	maximum = 0.0153333 (at node 3)
Accepted packet rate average = 0.009875
	minimum = 0.00466667 (at node 12)
	maximum = 0.0146667 (at node 1)
Injected flit rate average = 0.00983333
	minimum = 0.00666667 (at node 1)
	maximum = 0.0153333 (at node 3)
Accepted flit rate average= 0.009875
	minimum = 0.00466667 (at node 12)
	maximum = 0.0146667 (at node 1)
Injected packet length average = 1
Accepted packet length average = 1
Total in-flight flits = 1 (1 measured)
latency change    = 0.00512118
throughput change = 0.0632911
Class 0:
Packet latency average = 20.059
	minimum = 7
	maximum = 47
Network latency average = 20.059
	minimum = 7
	maximum = 47
Slowest packet = 472
Flit latency average = 20.1173
	minimum = 7
	maximum = 47
Slowest flit = 472
Fragmentation average = 0
	minimum = 0
	maximum = 0
Injected packet rate average = 0.0101875
	minimum = 0.0065 (at node 8)
	maximum = 0.014 (at node 10)
Accepted packet rate average = 0.010125
	minimum = 0.005 (at node 12)
	maximum = 0.015 (at node 1)
Injected flit rate average = 0.0101875
	minimum = 0.0065 (at node 8)
	maximum = 0.014 (at node 10)
Accepted flit rate average= 0.010125
	minimum = 0.005 (at node 12)
	maximum = 0.015 (at node 1)
Injected packet length average = 1
Accepted packet length average = 1
Total in-flight flits = 4 (4 measured)
latency change    = 0.00490755
throughput change = 0.0246914
Class 0:
Packet latency average = 20.1495
	minimum = 7
	maximum = 47
Network latency average = 20.1495
	minimum = 7
	maximum = 47
Slowest packet = 472
Flit latency average = 20.1951
	minimum = 7
	maximum = 47
Slowest flit = 472
Fragmentation average = 0
	minimum = 0
	maximum = 0
Injected packet rate average = 0.010275
	minimum = 0.0076 (at node 1)
	maximum = 0.0136 (at node 12)
Accepted packet rate average = 0.01025
	minimum = 0.0056 (at node 12)
	maximum = 0.0148 (at node 1)
Injected flit rate average = 0.010275
	minimum = 0.0076 (at node 1)
	maximum = 0.0136 (at node 12)
Accepted flit rate average= 0.01025
	minimum = 0.0056 (at node 12)
	maximum = 0.0148 (at node 1)
Injected packet length average = 1
Accepted packet length average = 1
Total in-flight flits = 3 (3 measured)
latency change    = 0.0044916
throughput change = 0.0121951
Class 0:
Packet latency average = 20.3742
	minimum = 7
	maximum = 47
Network latency average = 20.3742
	minimum = 7
	maximum = 47
Slowest packet = 472
Flit latency average = 20.4114
	minimum = 7
	maximum = 47
Slowest flit = 472
Fragmentation average = 0
	minimum = 0
	maximum = 0
Injected packet rate average = 0.0103125
	minimum = 0.00766667 (at node 1)
	maximum = 0.0136667 (at node 10)
Accepted packet rate average = 0.0102292
	minimum = 0.00733333 (at node 2)
	maximum = 0.0136667 (at node 1)
Injected flit rate average = 0.0103125
	minimum = 0.00766667 (at node 1)
	maximum = 0.0136667 (at node 10)
Accepted flit rate average= 0.0102292
	minimum = 0.00733333 (at node 2)
	maximum = 0.0136667 (at node 1)
Injected packet length average = 1
Accepted packet length average = 1
Total in-flight flits = 6 (6 measured)
latency change    = 0.0110298
throughput change = 0.00203666
Draining all recorded packets ...
Draining remaining packets ...
Time taken is 4546 cycles
Class 0:
Packet latency average = 18.4925
	minimum = 7
	maximum = 47
Network latency average = 18.4925
	minimum = 7
	maximum = 47
Slowest packet = 770
Flit latency average = 18.4925
	minimum = 7
	maximum = 47
Slowest flit = 770
Fragmentation average = 0
	minimum = 0
	maximum = 0
Injected packet rate average = 0.00875
	minimum = 0.004 (at node 13)
	maximum = 0.026 (at node 5)
Accepted packet rate average = 0.008375
	minimum = 0.004 (at node 2)
	maximum = 0.014 (at node 13)
Injected flit rate average = 0.00875
	minimum = 0.004 (at node 13)
	maximum = 0.026 (at node 5)
Accepted flit rate average= 0.008375
	minimum = 0.004 (at node 2)
	maximum = 0.014 (at node 13)
Injected packet length average = 1
Accepted packet length average = 1
Total in-flight flits = 3 (0 measured)
latency change    = 1
throughput change = 1
Class 0:
Packet latency average = 20.0188
	minimum = 7
	maximum = 47
Network latency average = 20.0188
	minimum = 7
	maximum = 47
Slowest packet = 770
Flit latency average = 20.0188
	minimum = 7
	maximum = 47
Slowest flit = 770
Fragmentation average = 0
	minimum = 0
	maximum = 0
Injected packet rate average = 0.01
	minimum = 0.005 (at node 2)
	maximum = 0.018 (at node 5)
Accepted packet rate average = 0.01
	minimum = 0.005 (at node 6)
	maximum = 0.013 (at node 10)
Injected flit rate average = 0.01
	minimum = 0.005 (at node 2)
	maximum = 0.018 (at node 5)
Accepted flit rate average= 0.01
	minimum = 0.005 (at node 6)
	maximum = 0.013 (at node 10)
Injected packet length average = 1
Accepted packet length average = 1
Total in-flight flits = 0 (0 measured)
latency change    = 0.0762392
throughput change = 0.1625
Class 0:
Packet latency average = 20.8493
	minimum = 7
	maximum = 42
Network latency average = 20.8493
	minimum = 7
	maximum = 42
Slowest packet = 942
Flit latency average = 20.8493
	minimum = 7
	maximum = 42
Slowest flit = 942
Fragmentation average = 0
	minimum = 0
	maximum = 0
Injected packet rate average = 0.009625
	minimum = 0.004 (at node 1)
	maximum = 0.016 (at node 9)
Accepted packet rate average = 0.009125
	minimum = 0.002 (at node 11)
	maximum = 0.018 (at node 1)
Injected flit rate average = 0.009625
	minimum = 0.004 (at node 1)
	maximum = 0.016 (at node 9)
Accepted flit rate average= 0.009125
	minimum = 0.002 (at node 11)
	maximum = 0.018 (at node 1)
Injected packet length average = 1
Accepted packet length average = 1
Total in-flight flits = 4 (0 measured)
latency change    = 0.0398366
throughput change = 0.0958904
Warmed up ...Time used is 1500 cycles
Class 0:
Packet latency average = 21.1481
	minimum = 7
	maximum = 42
Network latency average = 21.1481
	minimum = 7
	maximum = 42
Slowest packet = 1016
Flit latency average = 21.1882
	minimum = 7
	maximum = 42
Slowest flit = 946
Fragmentation average = 0
	minimum = 0
	maximum = 0
Injected packet rate average = 0.01075
	minimum = 0.004 (at node 6)
	maximum = 0.016 (at node 5)
Accepted packet rate average = 0.010625
	minimum = 0.004 (at node 9)
	maximum = 0.018 (at node 0)
Injected flit rate average = 0.01075
	minimum = 0.004 (at node 6)
	maximum = 0.016 (at node 5)
Accepted flit rate average= 0.010625
	minimum = 0.004 (at node 9)
	maximum = 0.018 (at node 0)
Injected packet length average = 1
Accepted packet length average = 1
Total in-flight flits = 5 (5 measured)
latency change    = 0.0141305
throughput change = 0.141176
Class 0:
Packet latency average = 21.1988
	minimum = 7
	maximum = 49
Network latency average = 21.1988
	minimum = 7
	maximum = 49
Slowest packet = 1063
Flit latency average = 21.2171
	minimum = 7
	maximum = 49
Slowest flit = 1063
Fragmentation average = 0
	minimum = 0
	maximum = 0
Injected packet rate average = 0.011
	minimum = 0.007 (at node 6)
	maximum = 0.015 (at node 5)
Accepted packet rate average = 0.0109375
	minimum = 0.004 (at node 11)
	maximum = 0.018 (at node 0)
Injected flit rate average = 0.011
	minimum = 0.007 (at node 6)
	maximum = 0.015 (at node 5)
Accepted flit rate average= 0.0109375
	minimum = 0.004 (at node 11)
	maximum = 0.018 (at node 0)
Injected packet length average = 1
Accepted packet length average = 1
Total in-flight flits = 5 (5 measured)
latency change    = 0.0023908
throughput change = 0.0285714
Class 0:
Packet latency average = 21.504
	minimum = 7
	maximum = 49
Network latency average = 21.504
	minimum = 7
	maximum = 49
Slowest packet = 1063
Flit latency average = 21.5117
	minimum = 7
	maximum = 49
Slowest flit = 1063
Fragmentation average = 0
	minimum = 0
	maximum = 0
Injected packet rate average = 0.0107083
	minimum = 0.00866667 (at node 0)
	maximum = 0.0153333 (at node 5)
Accepted packet rate average = 0.0106667
	minimum = 0.006 (at node 11)
	maximum = 0.016 (at node 8)
Injected flit rate average = 0.0107083
	minimum = 0.00866667 (at node 0)
	maximum = 0.0153333 (at node 5)
Accepted flit rate average= 0.0106667
	minimum = 0.006 (at node 11)
	maximum = 0.016 (at node 8)
Injected packet length average = 1
Accepted packet length average = 1
Total in-flight flits = 5 (5 measured)
latency change    = 0.0141898
throughput change = 0.0253906
Class 0:
Packet latency average = 21.3465
	minimum = 7
	maximum = 49
Network latency average = 21.3465
	minimum = 7
	maximum = 49
Slowest packet = 1063
Flit latency average = 21.3544
	minimum = 7
	maximum = 49
Slowest flit = 1063
Fragmentation average = 0
	minimum = 0
	maximum = 0
Injected packet rate average = 0.0104375
	minimum = 0.008 (at node 6)
	maximum = 0.015 (at node 3)
Accepted packet rate average = 0.0104063
	minimum = 0.006 (at node 11)
	maximum = 0.0155 (at node 0)
Injected flit rate average = 0.0104375
	minimum = 0.008 (at node 6)
	maximum = 0.015 (at node 3)
Accepted flit rate average= 0.0104063
	minimum = 0.006 (at node 11)
	maximum = 0.0155 (at node 0)
Injected packet length average = 1
Accepted packet length average = 1
Total in-flight flits = 5 (5 measured)
latency change    = 0.00737656
throughput change = 0.025025
Draining all recorded packets ...
Draining remaining packets ...
Time taken is 3532 cycles
Class 0:
Packet latency average = 20.75
	minimum = 7
	maximum = 54
Network latency average = 20.75
	minimum = 7
	maximum = 54
Slowest packet = 1330
Flit latency average = 20.75
	minimum = 7
	maximum = 54
Slowest flit = 1330
Fragmentation average = 0
	minimum = 0
	maximum = 0
Injected packet rate average = 0.00975
	minimum = 0.002 (at node 11)
	maximum = 0.014 (at node 1)
Accepted packet rate average = 0.0095
	minimum = 0.002 (at node 0)
	maximum = 0.016 (at node 5)
Injected flit rate average = 0.00975
	minimum = 0.002 (at node 11)
	maximum = 0.014 (at node 1)
Accepted flit rate average= 0.0095
	minimum = 0.002 (at node 0)
	maximum = 0.016 (at node 5)
Injected packet length average = 1
Accepted packet length average = 1
Total in-flight flits = 2 (0 measured)
latency change    = 1
throughput change = 1
Class 0:
Packet latency average = 20.1829
	minimum = 7
	maximum = 54
Network latency average = 20.1829
	minimum = 7
	maximum = 54
Slowest packet = 1330
Flit latency average = 20.1829
	minimum = 7
	maximum = 54
Slowest flit = 1330
Fragmentation average = 0
	minimum = 0
	maximum = 0
Injected packet rate average = 0.0105625
	minimum = 0.006 (at node 5)
	maximum = 0.015 (at node 15)
Accepted packet rate average = 0.01025
	minimum = 0.003 (at node 0)
	maximum = 0.015 (at node 5)
Injected flit rate average = 0.0105625
	minimum = 0.006 (at node 5)
	maximum = 0.015 (at node 15)
Accepted flit rate average= 0.01025
	minimum = 0.003 (at node 0)
	maximum = 0.015 (at node 5)
Injected packet length average = 1
Accepted packet length average = 1
Total in-flight flits = 5 (0 measured)
latency change    = 0.0280967
throughput change = 0.0731707
Class 0:
Packet latency average = 20.0106
	minimum = 7
	maximum = 42
Network latency average = 20.0106
	minimum = 7
	maximum = 42
Slowest packet = 1492
Flit latency average = 20.0106
	minimum = 7
	maximum = 42
Slowest flit = 1492
Fragmentation average = 0
	minimum = 0
	maximum = 0
Injected packet rate average = 0.0115
	minimum = 0 (at node 7)
	maximum = 0.022 (at node 0)
Accepted packet rate average = 0.01175
	minimum = 0.002 (at node 4)
	maximum = 0.018 (at node 3)
Injected flit rate average = 0.0115
	minimum = 0 (at node 7)
	maximum = 0.022 (at node 0)
Accepted flit rate average= 0.01175
	minimum = 0.002 (at node 4)
	maximum = 0.018 (at node 3)
Injected packet length average = 1
Accepted packet length average = 1
Total in-flight flits = 3 (0 measured)
latency change    = 0.00860985
throughput change = 0.12766
Warmed up ...Time used is 1500 cycles
Class 0:
Packet latency average = 21.2128
	minimum = 7
	maximum = 51
Network latency average = 21.2128
	minimum = 7
	maximum = 51
Slowest packet = 1585
Flit latency average = 21.3402
	minimum = 7
	maximum = 51
Slowest flit = 1585
Fragmentation average = 0
	minimum = 0
	maximum = 0
Injected packet rate average = 0.01175
	minimum = 0.004 (at node 1)
	maximum = 0.022 (at node 0)
Accepted packet rate average = 0.012125
	minimum = 0.006 (at node 7)
	maximum = 0.026 (at node 6)
Injected flit rate average = 0.01175
	minimum = 0.004 (at node 1)
	maximum = 0.022 (at node 0)
Accepted flit rate average= 0.012125
	minimum = 0.006 (at node 7)
	maximum = 0.026 (at node 6)
Injected packet length average = 1
Accepted packet length average = 1
Total in-flight flits = 0 (0 measured)
latency change    = 0.05667
throughput change = 0.0309278
Class 0:
Packet latency average = 20.3006
	minimum = 7
	maximum = 51
Network latency average = 20.3006
	minimum = 7
	maximum = 51
Slowest packet = 1585
Flit latency average = 20.3864
	minimum = 7
	maximum = 51
Slowest flit = 1585
Fragmentation average = 0
	minimum = 0
	maximum = 0
Injected packet rate average = 0.0110625
	minimum = 0.005 (at node 3)
	maximum = 0.019 (at node 14)
Accepted packet rate average = 0.011
	minimum = 0.007 (at node 13)
	maximum = 0.016 (at node 6)
Injected flit rate average = 0.0110625
	minimum = 0.005 (at node 3)
	maximum = 0.019 (at node 14)
Accepted flit rate average= 0.011
	minimum = 0.007 (at node 13)
	maximum = 0.016 (at node 6)
Injected packet length average = 1
Accepted packet length average = 1
Total in-flight flits = 4 (4 measured)
latency change    = 0.0449341
throughput change = 0.102273
Class 0:
Packet latency average = 20.3433
	minimum = 7
	maximum = 51
Network latency average = 20.3433
	minimum = 7
	maximum = 51
Slowest packet = 1585
Flit latency average = 20.3985
	minimum = 7
	maximum = 51
Slowest flit = 1585
Fragmentation average = 0
	minimum = 0
	maximum = 0
Injected packet rate average = 0.0112917
	minimum = 0.00466667 (at node 1)
	maximum = 0.018 (at node 6)
Accepted packet rate average = 0.0112917
	minimum = 0.008 (at node 13)
	maximum = 0.0153333 (at node 2)
Injected flit rate average = 0.0112917
	minimum = 0.00466667 (at node 1)
	maximum = 0.018 (at node 6)
Accepted flit rate average= 0.0112917
	minimum = 0.008 (at node 13)
	maximum = 0.0153333 (at node 2)
Injected packet length average = 1
Accepted packet length average = 1
Total in-flight flits = 3 (3 measured)
latency change    = 0.00209925
throughput change = 0.0258303
Class 0:
Packet latency average = 20.5126
	minimum = 7
	maximum = 51
Network latency average = 20.5126
	minimum = 7
	maximum = 51
Slowest packet = 1585
Flit latency average = 20.5528
	minimum = 7
	maximum = 51
Slowest flit = 1585
Fragmentation average = 0
	minimum = 0
	maximum = 0
Injected packet rate average = 0.0112812
	minimum = 0.0065 (at node 9)
	maximum = 0.0155 (at node 6)
Accepted packet rate average = 0.01125
	minimum = 0.009 (at node 12)
	maximum = 0.0135 (at node 6)
Injected flit rate average = 0.0112812
	minimum = 0.0065 (at node 9)
	maximum = 0.0155 (at node 6)
Accepted flit rate average= 0.01125
	minimum = 0.009 (at node 12)
	maximum = 0.0135 (at node 6)
Injected packet length average = 1
Accepted packet length average = 1
Total in-flight flits = 4 (4 measured)
latency change    = 0.00825451
throughput change = 0.0037037
Class 0:
Packet latency average = 20.5896
	minimum = 7
	maximum = 51
Network latency average = 20.5896
	minimum = 7
	maximum = 51
Slowest packet = 1585
Flit latency average = 20.6216
	minimum = 7
	maximum = 51
Slowest flit = 1585
Fragmentation average = 0
	minimum = 0
	maximum = 0
Injected packet rate average = 0.011075
	minimum = 0.0056 (at node 9)
	maximum = 0.0144 (at node 6)
Accepted packet rate average = 0.0111
	minimum = 0.0088 (at node 9)
	maximum = 0.0144 (at node 8)
Injected flit rate average = 0.011075
	minimum = 0.0056 (at node 9)
	maximum = 0.0144 (at node 6)
Accepted flit rate average= 0.0111
	minimum = 0.0088 (at node 9)
	maximum = 0.0144 (at node 8)
Injected packet length average = 1
Accepted packet length average = 1
Total in-flight flits = 2 (2 measured)
latency change    = 0.00373802
throughput change = 0.0135135
Draining all recorded packets ...
Draining remaining packets ...
Time taken is 4030 cycles
Class 0:
Packet latency average = 21.4789
	minimum = 7
	maximum = 42
Network latency average = 21.4789
	minimum = 7
	maximum = 42
Slowest packet = 2003
Flit latency average = 21.4789
	minimum = 7
	maximum = 42
Slowest flit = 2003
Fragmentation average = 0
	minimum = 0
	maximum = 0
Injected packet rate average = 0.00925
	minimum = 0.002 (at node 10)
	maximum = 0.014 (at node 6)
Accepted packet rate average = 0.008875
	minimum = 0.004 (at node 5)
	maximum = 0.016 (at node 4)
Injected flit rate average = 0.00925
	minimum = 0.002 (at node 10)
	maximum = 0.014 (at node 6)
Accepted flit rate average= 0.008875
	minimum = 0.004 (at node 5)
	maximum = 0.016 (at node 4)
Injected packet length average = 1
Accepted packet length average = 1
Total in-flight flits = 3 (0 measured)
latency change    = 1
throughput change = 1
Class 0:
Packet latency average = 20.7413
	minimum = 7
	maximum = 42
Network latency average = 20.7413
	minimum = 7
	maximum = 42
Slowest packet = 2003
Flit latency average = 20.7413
	minimum = 7
	maximum = 42
Slowest flit = 2003
Fragmentation average = 0
	minimum = 0
	maximum = 0
Injected packet rate average = 0.0091875
	minimum = 0.003 (at node 10)
	maximum = 0.014 (at node 0)
Accepted packet rate average = 0.0089375
	minimum = 0.003 (at node 5)
	maximum = 0.016 (at node 9)
Injected flit rate average = 0.0091875
	minimum = 0.003 (at node 10)
	maximum = 0.014 (at node 0)
Accepted flit rate average= 0.0089375
	minimum = 0.003 (at node 5)
	maximum = 0.016 (at node 9)
Injected packet length average = 1
Accepted packet length average = 1
Total in-flight flits = 4 (0 measured)
latency change    = 0.0355627
throughput change = 0.00699301
Class 0:
Packet latency average = 20.3333
	minimum = 7
	maximum = 42
Network latency average = 20.3333
	minimum = 7
	maximum = 42
Slowest packet = 2186
Flit latency average = 20.3333
	minimum = 7
	maximum = 42
Slowest flit = 2186
Fragmentation average = 0
	minimum = 0
	maximum = 0
Injected packet rate average = 0.011375
	minimum = 0.004 (at node 6)
	maximum = 0.022 (at node 14)
Accepted packet rate average = 0.01125
	minimum = 0.002 (at node 9)
	maximum = 0.02 (at node 5)
Injected flit rate average = 0.011375
	minimum = 0.004 (at node 6)
	maximum = 0.022 (at node 14)
Accepted flit rate average= 0.01125
	minimum = 0.002 (at node 9)
	maximum = 0.02 (at node 5)
Injected packet length average = 1
Accepted packet length average = 1
Total in-flight flits = 5 (0 measured)
latency change    = 0.0200619
throughput change = 0.205556
Warmed up ...Time used is 1500 cycles
Class 0:
Packet latency average = 19.2933
	minimum = 7
	maximum = 33
Network latency average = 19.2933
	minimum = 7
	maximum = 33
Slowest packet = 2241
Flit latency average = 19.15
	minimum = 7
	maximum = 33
Slowest flit = 2241
Fragmentation average = 0
	minimum = 0
	maximum = 0
Injected packet rate average = 0.0095
	minimum = 0.004 (at node 8)
	maximum = 0.016 (at node 4)
Accepted packet rate average = 0.01
	minimum = 0.004 (at node 10)
	maximum = 0.016 (at node 15)
Injected flit rate average = 0.0095
	minimum = 0.004 (at node 8)
	maximum = 0.016 (at node 4)
Accepted flit rate average= 0.01
	minimum = 0.004 (at node 10)
	maximum = 0.016 (at node 15)
Injected packet length average = 1
Accepted packet length average = 1
Total in-flight flits = 1 (1 measured)
latency change    = 0.0539046
throughput change = 0.125
Class 0:
Packet latency average = 19.4437
	minimum = 7
	maximum = 39
Network latency average = 19.4437
	minimum = 7
	maximum = 39
Slowest packet = 2325
Flit latency average = 19.3654
	minimum = 7
	maximum = 39
Slowest flit = 2325
Fragmentation average = 0
	minimum = 0
	maximum = 0
Injected packet rate average = 0.009625
	minimum = 0.005 (at node 3)
	maximum = 0.015 (at node 5)
Accepted packet rate average = 0.00975
	minimum = 0.004 (at node 9)
	maximum = 0.016 (at node 11)
Injected flit rate average = 0.009625
	minimum = 0.005 (at node 3)
	maximum = 0.015 (at node 5)
Accepted flit rate average= 0.00975
	minimum = 0.004 (at node 9)
	maximum = 0.016 (at node 11)
Injected packet length average = 1
Accepted packet length average = 1
Total in-flight flits = 3 (3 measured)
latency change    = 0.00773388
throughput change = 0.025641
Class 0:
Packet latency average = 19.7544
	minimum = 7
	maximum = 42
Network latency average = 19.7544
	minimum = 7
	maximum = 42
Slowest packet = 2382
Flit latency average = 19.6953
	minimum = 7
	maximum = 42
Slowest flit = 2382
Fragmentation average = 0
	minimum = 0
	maximum = 0
Injected packet rate average = 0.00966667
	minimum = 0.006 (at node 3)
	maximum = 0.0126667 (at node 5)
Accepted packet rate average = 0.00970833
	minimum = 0.006 (at node 9)
	maximum = 0.014 (at node 11)
Injected flit rate average = 0.00966667
	minimum = 0.006 (at node 3)
	maximum = 0.0126667 (at node 5)
Accepted flit rate average= 0.00970833
	minimum = 0.006 (at node 9)
	maximum = 0.014 (at node 11)
Injected packet length average = 1
Accepted packet length average = 1
Total in-flight flits = 4 (4 measured)
latency change    = 0.015727
throughput change = 0.00429185
Class 0:
Packet latency average = 19.9688
	minimum = 7
	maximum = 47
Network latency average = 19.9688
	minimum = 7
	maximum = 47
Slowest packet = 2511
Flit latency average = 19.9231
	minimum = 7
	maximum = 47
Slowest flit = 2511
Fragmentation average = 0
	minimum = 0
	maximum = 0
Injected packet rate average = 0.0101563
	minimum = 0.0065 (at node 3)
	maximum = 0.012 (at node 1)
Accepted packet rate average = 0.0101563
	minimum = 0.0065 (at node 9)
	maximum = 0.016 (at node 11)
Injected flit rate average = 0.0101563
	minimum = 0.0065 (at node 3)
	maximum = 0.012 (at node 1)
Accepted flit rate average= 0.0101563
	minimum = 0.0065 (at node 9)
	maximum = 0.016 (at node 11)
Injected packet length average = 1
Accepted packet length average = 1
Total in-flight flits = 5 (5 measured)
latency change    = 0.010735
throughput change = 0.0441026
Draining all recorded packets ...
Draining remaining packets ...
Time taken is 3551 cycles
Class 0:
Packet latency average = 22.7381
	minimum = 12
	maximum = 47
Network latency average = 22.7381
	minimum = 12
	maximum = 47
Slowest packet = 2633
Flit latency average = 22.7381
	minimum = 12
	maximum = 47
Slowest flit = 2633
Fragmentation average = 0
	minimum = 0
	maximum = 0
Injected packet rate average = 0.010625
	minimum = 0.004 (at node 4)
	maximum = 0.018 (at node 11)
Accepted packet rate average = 0.0105
	minimum = 0.002 (at node 9)
	maximum = 0.018 (at node 8)
Injected flit rate average = 0.010625
	minimum = 0.004 (at node 4)
	maximum = 0.018 (at node 11)
Accepted flit rate average= 0.0105
	minimum = 0.002 (at node 9)
	maximum = 0.018 (at node 8)
Injected packet length average = 1
Accepted packet length average = 1
Total in-flight flits = 1 (0 measured)
latency change    = 1
throughput change = 1
Class 0:
Packet latency average = 21.4724
	minimum = 7
	maximum = 47
Network latency average = 21.4724
	minimum = 7
	maximum = 47
Slowest packet = 2633
Flit latency average = 21.4724
	minimum = 7
	maximum = 47
Slowest flit = 2633
Fragmentation average = 0
	minimum = 0
	maximum = 0
Injected packet rate average = 0.0104375
	minimum = 0.005 (at node 7)
	maximum = 0.016 (at node 3)
Accepted packet rate average = 0.0101875
	minimum = 0.006 (at node 2)
	maximum = 0.022 (at node 10)
Injected flit rate average = 0.0104375
	minimum = 0.005 (at node 7)
	maximum = 0.016 (at node 3)
Accepted flit rate average= 0.0101875
	minimum = 0.006 (at node 2)
	maximum = 0.022 (at node 10)
Injected packet length average = 1
Accepted packet length average = 1
Total in-flight flits = 4 (0 measured)
latency change    = 0.0589456
throughput change = 0.0306748
Class 0:
Packet latency average = 22.6923
	minimum = 7
	maximum = 42
Network latency average = 22.6923
	minimum = 7
	maximum = 42
Slowest packet = 2746
Flit latency average = 22.6923
	minimum = 7
	maximum = 42
Slowest flit = 2746
Fragmentation average = 0
	minimum = 0
	maximum = 0
Injected packet rate average = 0.0085
	minimum = 0 (at node 7)
	maximum = 0.016 (at node 0)
Accepted packet rate average = 0.008125
	minimum = 0.004 (at node 1)
	maximum = 0.016 (at node 3)
Injected flit rate average = 0.0085
	minimum = 0 (at node 7)
	maximum = 0.016 (at node 0)
Accepted flit rate average= 0.008125
	minimum = 0.004 (at node 1)
	maximum = 0.016 (at node 3)
Injected packet length average = 1
Accepted packet length average = 1
Total in-flight flits = 7 (0 measured)
latency change    = 0.053759
throughput change = 0.253846
Warmed up ...Time used is 1500 cycles
Class 0:
Packet latency average = 19.0909
	minimum = 7
	maximum = 47
Network latency average = 19.0909
	minimum = 7
	maximum = 47
Slowest packet = 2802
Flit latency average = 19.3699
	minimum = 7
	maximum = 47
Slowest flit = 2802
Fragmentation average = 0
	minimum = 0
	maximum = 0
Injected packet rate average = 0.00875
	minimum = 0.002 (at node 8)
	maximum = 0.018 (at node 6)
Accepted packet rate average = 0.009125
	minimum = 0.004 (at node 10)
	maximum = 0.016 (at node 6)
Injected flit rate average = 0.00875
	minimum = 0.002 (at node 8)
	maximum = 0.018 (at node 6)
Accepted flit rate average= 0.009125
	minimum = 0.004 (at node 10)
	maximum = 0.016 (at node 6)
Injected packet length average = 1
Accepted packet length average = 1
Total in-flight flits = 4 (4 measured)
latency change    = 0.188645
throughput change = 0.109589
Class 0:
Packet latency average = 20.1389
	minimum = 7
	maximum = 47
Network latency average = 20.1389
	minimum = 7
	maximum = 47
Slowest packet = 2802
Flit latency average = 20.2252
	minimum = 7
	maximum = 47
Slowest flit = 2802
Fragmentation average = 0
	minimum = 0
	maximum = 0
Injected packet rate average = 0.00925
	minimum = 0.004 (at node 3)
	maximum = 0.013 (at node 4)
Accepted packet rate average = 0.0094375
	minimum = 0.005 (at node 10)
	maximum = 0.014 (at node 0)
Injected flit rate average = 0.00925
	minimum = 0.004 (at node 3)
	maximum = 0.013 (at node 4)
Accepted flit rate average= 0.0094375
	minimum = 0.005 (at node 10)
	maximum = 0.014 (at node 0)
Injected packet length average = 1
Accepted packet length average = 1
Total in-flight flits = 4 (4 measured)
latency change    = 0.0520376
throughput change = 0.0331126
Class 0:
Packet latency average = 20.3507
	minimum = 7
	maximum = 47
Network latency average = 20.3507
	minimum = 7
	maximum = 47
Slowest packet = 2802
Flit latency average = 20.4037
	minimum = 7
	maximum = 47
Slowest flit = 2802
Fragmentation average = 0
	minimum = 0
	maximum = 0
Injected packet rate average = 0.00891667
	minimum = 0.006 (at node 3)
	maximum = 0.012 (at node 2)
Accepted packet rate average = 0.00908333
	minimum = 0.00466667 (at node 9)
	maximum = 0.012 (at node 2)
Injected flit rate average = 0.00891667
	minimum = 0.006 (at node 3)
	maximum = 0.012 (at node 2)
Accepted flit rate average= 0.00908333
	minimum = 0.00466667 (at node 9)
	maximum = 0.012 (at node 2)
Injected packet length average = 1
Accepted packet length average = 1
Total in-flight flits = 3 (3 measured)
latency change    = 0.0104086
throughput change = 0.0389908
Class 0:
Packet latency average = 20.4348
	minimum = 7
	maximum = 47
Network latency average = 20.4348
	minimum = 7
	maximum = 47
Slowest packet = 2802
Flit latency average = 20.4735
	minimum = 7
	maximum = 47
Slowest flit = 2802
Fragmentation average = 0
	minimum = 0
	maximum = 0
Injected packet rate average = 0.00875
	minimum = 0.006 (at node 3)
	maximum = 0.0115 (at node 2)
Accepted packet rate average = 0.00884375
	minimum = 0.005 (at node 10)
	maximum = 0.0115 (at node 2)
Injected flit rate average = 0.00875
	minimum = 0.006 (at node 3)
	maximum = 0.0115 (at node 2)
Accepted flit rate average= 0.00884375
	minimum = 0.005 (at node 10)
	maximum = 0.0115 (at node 2)
Injected packet length average = 1
Accepted packet length average = 1
Total in-flight flits = 4 (4 measured)
latency change    = 0.00411415
throughput change = 0.0270907
Class 0:
Packet latency average = 21.0978
	minimum = 7
	maximum = 47
Network latency average = 21.0978
	minimum = 7
	maximum = 47
Slowest packet = 2802
Flit latency average = 21.1151
	minimum = 7
	maximum = 47
Slowest flit = 2802
Fragmentation average = 0
	minimum = 0
	maximum = 0
Injected packet rate average = 0.009125
	minimum = 0.006 (at node 10)
	maximum = 0.0132 (at node 12)
Accepted packet rate average = 0.009125
	minimum = 0.006 (at node 10)
	maximum = 0.0116 (at node 0)
Injected flit rate average = 0.009125
	minimum = 0.006 (at node 10)
	maximum = 0.0132 (at node 12)
Accepted flit rate average= 0.009125
	minimum = 0.006 (at node 10)
	maximum = 0.0116 (at node 0)
Injected packet length average = 1
Accepted packet length average = 1
Total in-flight flits = 7 (7 measured)
latency change    = 0.0314243
throughput change = 0.0308219
Draining all recorded packets ...
Draining remaining packets ...
Time taken is 4064 cycles
Class 0:
Packet latency average = 19.3
	minimum = 7
	maximum = 42
Network latency average = 19.3
	minimum = 7
	maximum = 42
Slowest packet = 3173
Flit latency average = 19.3
	minimum = 7
	maximum = 42
Slowest flit = 3173
Fragmentation average = 0
	minimum = 0
	maximum = 0
Injected packet rate average = 0.00925
	minimum = 0.002 (at node 3)
	maximum = 0.016 (at node 14)
Accepted packet rate average = 0.00875
	minimum = 0.004 (at node 6)
	maximum = 0.016 (at node 4)
Injected flit rate average = 0.00925
	minimum = 0.002 (at node 3)
	maximum = 0.016 (at node 14)
Accepted flit rate average= 0.00875
	minimum = 0.004 (at node 6)
	maximum = 0.016 (at node 4)
Injected packet length average = 1
Accepted packet length average = 1
Total in-flight flits = 4 (0 measured)
latency change    = 1
throughput change = 1
Class 0:
Packet latency average = 20.509
	minimum = 7
	maximum = 47
Network latency average = 20.509
	minimum = 7
	maximum = 47
Slowest packet = 3275
Flit latency average = 20.509
	minimum = 7
	maximum = 47
Slowest flit = 3275
Fragmentation average = 0
	minimum = 0
	maximum = 0
Injected packet rate average = 0.0105625
	minimum = 0.007 (at node 3)
	maximum = 0.016 (at node 15)
Accepted packet rate average = 0.0104375
	minimum = 0.007 (at node 6)
	maximum = 0.014 (at node 2)
Injected flit rate average = 0.0105625
	minimum = 0.007 (at node 3)
	maximum = 0.016 (at node 15)
Accepted flit rate average= 0.0104375
	minimum = 0.007 (at node 6)
	maximum = 0.014 (at node 2)
Injected packet length average = 1
Accepted packet length average = 1
Total in-flight flits = 2 (0 measured)
latency change    = 0.0589489
throughput change = 0.161677
Class 0:
Packet latency average = 19.6235
	minimum = 7
	maximum = 42
Network latency average = 19.6235
	minimum = 7
	maximum = 42
Slowest packet = 3409
Flit latency average = 19.6235
	minimum = 7
	maximum = 42
Slowest flit = 3409
Fragmentation average = 0
	minimum = 0
	maximum = 0
Injected packet rate average = 0.010625
	minimum = 0.004 (at node 2)
	maximum = 0.022 (at node 3)
Accepted packet rate average = 0.010625
	minimum = 0 (at node 12)
	maximum = 0.022 (at node 2)
Injected flit rate average = 0.010625
	minimum = 0.004 (at node 2)
	maximum = 0.022 (at node 3)
Accepted flit rate average= 0.010625
	minimum = 0 (at node 12)
	maximum = 0.022 (at node 2)
Injected packet length average = 1
Accepted packet length average = 1
Total in-flight flits = 2 (0 measured)
latency change    = 0.045122
throughput change = 0.0176471
Warmed up ...Time used is 1500 cycles
Class 0:
Packet latency average = 18.9136
	minimum = 7
	maximum = 37
Network latency average = 18.9136
	minimum = 7
	maximum = 37
Slowest packet = 3426
Flit latency average = 19.2651
	minimum = 7
	maximum = 40
Slowest flit = 3414
Fragmentation average = 0
	minimum = 0
	maximum = 0
Injected packet rate average = 0.0105
	minimum = 0.006 (at node 9)
	maximum = 0.018 (at node 7)
Accepted packet rate average = 0.010375
	minimum = 0.004 (at node 4)
	maximum = 0.02 (at node 5)
Injected flit rate average = 0.0105
	minimum = 0.006 (at node 9)
	maximum = 0.018 (at node 7)
Accepted flit rate average= 0.010375
	minimum = 0.004 (at node 4)
	maximum = 0.02 (at node 5)
Injected packet length average = 1
Accepted packet length average = 1
Total in-flight flits = 3 (3 measured)
latency change    = 0.0375365
throughput change = 0.0240964
Class 0:
Packet latency average = 19.087
	minimum = 7
	maximum = 47
Network latency average = 19.087
	minimum = 7
	maximum = 47
Slowest packet = 3499
Flit latency average = 19.2638
	minimum = 7
	maximum = 47
Slowest flit = 3499
Fragmentation average = 0
	minimum = 0
	maximum = 0
Injected packet rate average = 0.01025
	minimum = 0.005 (at node 12)
	maximum = 0.015 (at node 13)
Accepted packet rate average = 0.0101875
	minimum = 0.006 (at node 8)
	maximum = 0.015 (at node 5)
Injected flit rate average = 0.01025
	minimum = 0.005 (at node 12)
	maximum = 0.015 (at node 13)
Accepted flit rate average= 0.0101875
	minimum = 0.006 (at node 8)
	maximum = 0.015 (at node 5)
Injected packet length average = 1
Accepted packet length average = 1
Total in-flight flits = 3 (3 measured)
latency change    = 0.0090835
throughput change = 0.0184049
Class 0:
Packet latency average = 19.0792
	minimum = 7
	maximum = 47
Network latency average = 19.0792
	minimum = 7
	maximum = 47
Slowest packet = 3499
Flit latency average = 19.1983
	minimum = 7
	maximum = 47
Slowest flit = 3499
Fragmentation average = 0
	minimum = 0
	maximum = 0
Injected packet rate average = 0.0101667
	minimum = 0.00533333 (at node 10)
	maximum = 0.0153333 (at node 13)
Accepted packet rate average = 0.0100833
	minimum = 0.006 (at node 8)
	maximum = 0.0133333 (at node 4)
Injected flit rate average = 0.0101667
	minimum = 0.00533333 (at node 10)
	maximum = 0.0153333 (at node 13)
Accepted flit rate average= 0.0100833
	minimum = 0.006 (at node 8)
	maximum = 0.0133333 (at node 4)
Injected packet length average = 1
Accepted packet length average = 1
Total in-flight flits = 4 (4 measured)
latency change    = 0.000408291
throughput change = 0.0103306
Draining all recorded packets ...
Draining remaining packets ...
Time taken is 3023 cycles
Class 0:
Packet latency average = 20.1358
	minimum = 7
	maximum = 42
Network latency average = 20.1358
	minimum = 7
	maximum = 42
Slowest packet = 3715
Flit latency average = 20.1358
	minimum = 7
	maximum = 42
Slowest flit = 3715
Fragmentation average = 0
	minimum = 0
	maximum = 0
Injected packet rate average = 0.010375
	minimum = 0.004 (at node 1)
	maximum = 0.018 (at node 13)
Accepted packet rate average = 0.010125
	minimum = 0.006 (at node 10)
	maximum = 0.018 (at node 0)
Injected flit rate average = 0.010375
	minimum = 0.004 (at node 1)
	maximum = 0.018 (at node 13)
Accepted flit rate average= 0.010125
	minimum = 0.006 (at node 10)
	maximum = 0.018 (at node 0)
Injected packet length average = 1
Accepted packet length average = 1
Total in-flight flits = 2 (0 measured)
latency change    = 1
throughput change = 1
Class 0:
Packet latency average = 20.2593
	minimum = 7
	maximum = 47
Network latency average = 20.2593
	minimum = 7
	maximum = 47
Slowest packet = 3814
Flit latency average = 20.2593
	minimum = 7
	maximum = 47
Slowest flit = 3814
Fragmentation average = 0
	minimum = 0
	maximum = 0
Injected packet rate average = 0.01025
	minimum = 0.003 (at node 1)
	maximum = 0.014 (at node 8)
Accepted packet rate average = 0.010125
	minimum = 0.006 (at node 10)
	maximum = 0.015 (at node 6)
Injected flit rate average = 0.01025
	minimum = 0.003 (at node 1)
	maximum = 0.014 (at node 8)
Accepted flit rate average= 0.010125
	minimum = 0.006 (at node 10)
	maximum = 0.015 (at node 6)
Injected packet length average = 1
Accepted packet length average = 1
Total in-flight flits = 2 (0 measured)
latency change    = 0.00609385
throughput change = 0
Class 0:
Packet latency average = 21.7
	minimum = 7
	maximum = 33
Network latency average = 21.7
	minimum = 7
	maximum = 33
Slowest packet = 3861
Flit latency average = 21.7
	minimum = 7
	maximum = 33
Slowest flit = 3861
Fragmentation average = 0
	minimum = 0
	maximum = 0
Injected packet rate average = 0.00775
	minimum = 0 (at node 0)
	maximum = 0.016 (at node 4)
Accepted packet rate average = 0.0075
	minimum = 0 (at node 8)
	maximum = 0.018 (at node 7)
Injected flit rate average = 0.00775
	minimum = 0 (at node 0)
	maximum = 0.016 (at node 4)
Accepted flit rate average= 0.0075
	minimum = 0 (at node 8)
	maximum = 0.018 (at node 7)
Injected packet length average = 1
Accepted packet length average = 1
Total in-flight flits = 4 (0 measured)
latency change    = 0.0663936
throughput change = 0.35
Warmed up ...Time used is 1500 cycles
Class 0:
Packet latency average = 18.9231
	minimum = 7
	maximum = 37
Network latency average = 18.9231
	minimum = 7
	maximum = 37
Slowest packet = 3909
Flit latency average = 19.1739
	minimum = 7
	maximum = 37
Slowest flit = 3909
Fragmentation average = 0
	minimum = 0
	maximum = 0
Injected packet rate average = 0.008625
	minimum = 0.002 (at node 14)
	maximum = 0.016 (at node 11)
Accepted packet rate average = 0.008625
	minimum = 0.002 (at node 2)
	maximum = 0.018 (at node 1)
Injected flit rate average = 0.008625
	minimum = 0.002 (at node 14)
	maximum = 0.016 (at node 11)
Accepted flit rate average= 0.008625
	minimum = 0.002 (at node 2)
	maximum = 0.018 (at node 1)
Injected packet length average = 1
Accepted packet length average = 1
Total in-flight flits = 4 (4 measured)
latency change    = 0.146748
throughput change = 0.130435
Class 0:
Packet latency average = 19.25
	minimum = 7
	maximum = 42
Network latency average = 19.25
	minimum = 7
	maximum = 42
Slowest packet = 4001
Flit latency average = 19.3581
	minimum = 7
	maximum = 42
Slowest flit = 4001
Fragmentation average = 0
	minimum = 0
	maximum = 0
Injected packet rate average = 0.00925
	minimum = 0.005 (at node 5)
	maximum = 0.014 (at node 15)
Accepted packet rate average = 0.00925
	minimum = 0.005 (at node 2)
	maximum = 0.015 (at node 9)
Injected flit rate average = 0.00925
	minimum = 0.005 (at node 5)
	maximum = 0.014 (at node 15)
Accepted flit rate average= 0.00925
	minimum = 0.005 (at node 2)
	maximum = 0.015 (at node 9)
Injected packet length average = 1
Accepted packet length average = 1
Total in-flight flits = 4 (4 measured)
latency change    = 0.016983
throughput change = 0.0675676
Class 0:
Packet latency average = 19.552
	minimum = 7
	maximum = 42
Network latency average = 19.552
	minimum = 7
	maximum = 42
Slowest packet = 4001
Flit latency average = 19.6178
	minimum = 7
	maximum = 42
Slowest flit = 4001
Fragmentation average = 0
	minimum = 0
	maximum = 0
Injected packet rate average = 0.00933333
	minimum = 0.00333333 (at node 5)
	maximum = 0.0133333 (at node 12)
Accepted packet rate average = 0.009375
	minimum = 0.00466667 (at node 8)
	maximum = 0.0133333 (at node 4)
Injected flit rate average = 0.00933333
	minimum = 0.00333333 (at node 5)
	maximum = 0.0133333 (at node 12)
Accepted flit rate average= 0.009375
	minimum = 0.00466667 (at node 8)
	maximum = 0.0133333 (at node 4)
Injected packet length average = 1
Accepted packet length average = 1
Total in-flight flits = 3 (3 measured)
latency change    = 0.0154478
throughput change = 0.0133333
Class 0:
Packet latency average = 20.1704
	minimum = 7
	maximum = 56
Network latency average = 20.1704
	minimum = 7
	maximum = 56
Slowest packet = 4117
Flit latency average = 20.2095
	minimum = 7
	maximum = 56
Slowest flit = 4117
Fragmentation average = 0
	minimum = 0
	maximum = 0
Injected packet rate average = 0.00978125
	minimum = 0.0045 (at node 5)
	maximum = 0.013 (at node 15)
Accepted packet rate average = 0.00984375
	minimum = 0.005 (at node 14)
	maximum = 0.013 (at node 9)
Injected flit rate average = 0.00978125
	minimum = 0.0045 (at node 5)
	maximum = 0.013 (at node 15)
Accepted flit rate average= 0.00984375
	minimum = 0.005 (at node 14)
	maximum = 0.013 (at node 9)
Injected packet length average = 1
Accepted packet length average = 1
Total in-flight flits = 2 (2 measured)
latency change    = 0.0306579
throughput change = 0.047619
Class 0:
Packet latency average = 20.4885
	minimum = 7
	maximum = 56
Network latency average = 20.4885
	minimum = 7
	maximum = 56
Slowest packet = 4117
Flit latency average = 20.5164
	minimum = 7
	maximum = 56
Slowest flit = 4117
Fragmentation average = 0
	minimum = 0
	maximum = 0
Injected packet rate average = 0.00985
	minimum = 0.0044 (at node 5)
	maximum = 0.0128 (at node 15)
Accepted packet rate average = 0.009925
	minimum = 0.006 (at node 14)
	maximum = 0.014 (at node 9)
Injected flit rate average = 0.00985
	minimum = 0.0044 (at node 5)
	maximum = 0.0128 (at node 15)
Accepted flit rate average= 0.009925
	minimum = 0.006 (at node 14)
	maximum = 0.014 (at node 9)
Injected packet length average = 1
Accepted packet length average = 1
Total in-flight flits = 1 (1 measured)
latency change    = 0.0155273
throughput change = 0.0081864
Draining all recorded packets ...
Draining remaining packets ...
Time taken is 4032 cycles
Class 0:
Packet latency average = 20.0256
	minimum = 7
	maximum = 37
Network latency average = 20.0256
	minimum = 7
	maximum = 37
Slowest packet = 4293
Flit latency average = 20.0256
	minimum = 7
	maximum = 37
Slowest flit = 4293
Fragmentation average = 0
	minimum = 0
	maximum = 0
Injected packet rate average = 0.01
	minimum = 0.006 (at node 8)
	maximum = 0.016 (at node 10)
Accepted packet rate average = 0.00975
	minimum = 0.004 (at node 1)
	maximum = 0.02 (at node 0)
Injected flit rate average = 0.01
	minimum = 0.006 (at node 8)
	maximum = 0.016 (at node 10)
Accepted flit rate average= 0.00975
	minimum = 0.004 (at node 1)
	maximum = 0.02 (at node 0)
Injected packet length average = 1
Accepted packet length average = 1
Total in-flight flits = 2 (0 measured)
latency change    = 1
throughput change = 1
Class 0:
Packet latency average = 21.4244
	minimum = 7
	maximum = 42
Network latency average = 21.4244
	minimum = 7
	maximum = 42
Slowest packet = 4413
Flit latency average = 21.4244
	minimum = 7
	maximum = 42
Slowest flit = 4413
Fragmentation average = 0
	minimum = 0
	maximum = 0
Injected packet rate average = 0.0109375
	minimum = 0.007 (at node 8)
	maximum = 0.015 (at node 15)
Accepted packet rate average = 0.01075
	minimum = 0.005 (at node 7)
	maximum = 0.017 (at node 0)
Injected flit rate average = 0.0109375
	minimum = 0.007 (at node 8)
	maximum = 0.015 (at node 15)
Accepted flit rate average= 0.01075
	minimum = 0.005 (at node 7)
	maximum = 0.017 (at node 0)
Injected packet length average = 1
Accepted packet length average = 1
Total in-flight flits = 3 (0 measured)
latency change    = 0.0652889
throughput change = 0.0930233
Class 0:
Packet latency average = 20.4684
	minimum = 7
	maximum = 47
Network latency average = 20.4684
	minimum = 7
	maximum = 47
Slowest packet = 4510
Flit latency average = 20.4684
	minimum = 7
	maximum = 47
Slowest flit = 4510
Fragmentation average = 0
	minimum = 0
	maximum = 0
Injected packet rate average = 0.009875
	minimum = 0.002 (at node 7)
	maximum = 0.016 (at node 2)
Accepted packet rate average = 0.009875
	minimum = 0 (at node 14)
	maximum = 0.016 (at node 13)
Injected flit rate average = 0.009875
	minimum = 0.002 (at node 7)
	maximum = 0.016 (at node 2)
Accepted flit rate average= 0.009875
	minimum = 0 (at node 14)
	maximum = 0.016 (at node 13)
Injected packet length average = 1
Accepted packet length average = 1
Total in-flight flits = 3 (0 measured)
latency change    = 0.0467094
throughput change = 0.0886076
Warmed up ...Time used is 1500 cycles
Class 0:
Packet latency average = 20.5876
	minimum = 7
	maximum = 42
Network latency average = 20.5876
	minimum = 7
	maximum = 42
Slowest packet = 4628
Flit latency average = 20.53
	minimum = 7
	maximum = 42
Slowest flit = 4628
Fragmentation average = 0
	minimum = 0
	maximum = 0
Injected packet rate average = 0.01275
	minimum = 0.004 (at node 6)
	maximum = 0.024 (at node 15)
Accepted packet rate average = 0.0125
	minimum = 0.004 (at node 2)
	maximum = 0.022 (at node 5)
Injected flit rate average = 0.01275
	minimum = 0.004 (at node 6)
	maximum = 0.024 (at node 15)
Accepted flit rate average= 0.0125
	minimum = 0.004 (at node 2)
	maximum = 0.022 (at node 5)
Injected packet length average = 1
Accepted packet length average = 1
Total in-flight flits = 5 (5 measured)
latency change    = 0.0057935
throughput change = 0.21
Class 0:
Packet latency average = 20.2781
	minimum = 7
	maximum = 42
Network latency average = 20.2781
	minimum = 7
	maximum = 42
Slowest packet = 4628
Flit latency average = 20.25
	minimum = 7
	maximum = 42
Slowest flit = 4628
Fragmentation average = 0
	minimum = 0
	maximum = 0
Injected packet rate average = 0.01075
	minimum = 0.005 (at node 5)
	maximum = 0.017 (at node 14)
Accepted packet rate average = 0.01075
	minimum = 0.005 (at node 2)
	maximum = 0.018 (at node 0)
Injected flit rate average = 0.01075
	minimum = 0.005 (at node 5)
	maximum = 0.017 (at node 14)
Accepted flit rate average= 0.01075
	minimum = 0.005 (at node 2)
	maximum = 0.018 (at node 0)
Injected packet length average = 1
Accepted packet length average = 1
Total in-flight flits = 3 (3 measured)
latency change    = 0.0152639
throughput change = 0.162791
Class 0:
Packet latency average = 20.232
	minimum = 7
	maximum = 42
Network latency average = 20.232
	minimum = 7
	maximum = 42
Slowest packet = 4628
Flit latency average = 20.2134
	minimum = 7
	maximum = 42
Slowest flit = 4628
Fragmentation average = 0
	minimum = 0
	maximum = 0
Injected packet rate average = 0.0105
	minimum = 0.00533333 (at node 5)
	maximum = 0.0146667 (at node 4)
Accepted packet rate average = 0.0105417
	minimum = 0.006 (at node 2)
	maximum = 0.0166667 (at node 0)
Injected flit rate average = 0.0105
	minimum = 0.00533333 (at node 5)
	maximum = 0.0146667 (at node 4)
Accepted flit rate average= 0.0105417
	minimum = 0.006 (at node 2)
	maximum = 0.0166667 (at node 0)
Injected packet length average = 1
Accepted packet length average = 1
Total in-flight flits = 2 (2 measured)
latency change    = 0.00227889
throughput change = 0.0197628
Class 0:
Packet latency average = 20.0944
	minimum = 7
	maximum = 47
Network latency average = 20.0944
	minimum = 7
	maximum = 47
Slowest packet = 4794
Flit latency average = 20.0819
	minimum = 7
	maximum = 47
Slowest flit = 4794
Fragmentation average = 0
	minimum = 0
	maximum = 0
Injected packet rate average = 0.0106563
	minimum = 0.0065 (at node 13)
	maximum = 0.015 (at node 4)
Accepted packet rate average = 0.0106875
	minimum = 0.006 (at node 13)
	maximum = 0.0165 (at node 0)
Injected flit rate average = 0.0106563
	minimum = 0.0065 (at node 13)
	maximum = 0.015 (at node 4)
Accepted flit rate average= 0.0106875
	minimum = 0.006 (at node 13)
	maximum = 0.0165 (at node 0)
Injected packet length average = 1
Accepted packet length average = 1
Total in-flight flits = 2 (2 measured)
latency change    = 0.00684792
throughput change = 0.0136452
Class 0:
Packet latency average = 19.6131
	minimum = 7
	maximum = 47
Network latency average = 19.6131
	minimum = 7
	maximum = 47
Slowest packet = 4794
Flit latency average = 19.6063
	minimum = 7
	maximum = 47
Slowest flit = 4794
Fragmentation average = 0
	minimum = 0
	maximum = 0
Injected packet rate average = 0.010325
	minimum = 0.0072 (at node 5)
	maximum = 0.0136 (at node 14)
Accepted packet rate average = 0.01035
	minimum = 0.0068 (at node 13)
	maximum = 0.0144 (at node 0)
Injected flit rate average = 0.010325
	minimum = 0.0072 (at node 5)
	maximum = 0.0136 (at node 14)
Accepted flit rate average= 0.01035
	minimum = 0.0068 (at node 13)
	maximum = 0.0144 (at node 0)
Injected packet length average = 1
Accepted packet length average = 1
Total in-flight flits = 2 (2 measured)
latency change    = 0.0245375
throughput change = 0.0326087
Draining all recorded packets ...
Draining remaining packets ...
Time taken is 4060 cycles
Class 0:
Packet latency average = 21.0854
	minimum = 7
	maximum = 42
Network latency average = 21.0854
	minimum = 7
	maximum = 42
Slowest packet = 4969
Flit latency average = 21.0854
	minimum = 7
	maximum = 42
Slowest flit = 4969
Fragmentation average = 0
	minimum = 0
	maximum = 0
Injected packet rate average = 0.01075
	minimum = 0.004 (at node 9)
	maximum = 0.02 (at node 12)
Accepted packet rate average = 0.01025
	minimum = 0.004 (at node 3)
	maximum = 0.026 (at node 11)
Injected flit rate average = 0.01075
	minimum = 0.004 (at node 9)
	maximum = 0.02 (at node 12)
Accepted flit rate average= 0.01025
	minimum = 0.004 (at node 3)
	maximum = 0.026 (at node 11)
Injected packet length average = 1
Accepted packet length average = 1
Total in-flight flits = 4 (0 measured)
latency change    = 1
throughput change = 1
Class 0:
Packet latency average = 20.5616
	minimum = 7
	maximum = 47
Network latency average = 20.5616
	minimum = 7
	maximum = 47
Slowest packet = 5039
Flit latency average = 20.5616
	minimum = 7
	maximum = 47
Slowest flit = 5039
Fragmentation average = 0
	minimum = 0
	maximum = 0
Injected packet rate average = 0.009375
	minimum = 0.005 (at node 7)
	maximum = 0.013 (at node 4)
Accepted packet rate average = 0.009125
	minimum = 0.004 (at node 3)
	maximum = 0.016 (at node 11)
Injected flit rate average = 0.009375
	minimum = 0.005 (at node 7)
	maximum = 0.013 (at node 4)
Accepted flit rate average= 0.009125
	minimum = 0.004 (at node 3)
	maximum = 0.016 (at node 11)
Injected packet length average = 1
Accepted packet length average = 1
Total in-flight flits = 4 (0 measured)
latency change    = 0.0254708
throughput change = 0.123288
Class 0:
Packet latency average = 18.6932
	minimum = 7
	maximum = 37
Network latency average = 18.6932
	minimum = 7
	maximum = 37
Slowest packet = 5112
Flit latency average = 18.6932
	minimum = 7
	maximum = 37
Slowest flit = 5112
Fragmentation average = 0
	minimum = 0
	maximum = 0
Injected packet rate average = 0.011125
	minimum = 0.002 (at node 0)
	maximum = 0.018 (at node 3)
Accepted packet rate average = 0.011
	minimum = 0.004 (at node 1)
	maximum = 0.022 (at node 11)
Injected flit rate average = 0.011125
	minimum = 0.002 (at node 0)
	maximum = 0.018 (at node 3)
Accepted flit rate average= 0.011
	minimum = 0.004 (at node 1)
	maximum = 0.022 (at node 11)
Injected packet length average = 1
Accepted packet length average = 1
Total in-flight flits = 5 (0 measured)
latency change    = 0.0999542
throughput change = 0.170455
Warmed up ...Time used is 1500 cycles
Class 0:
Packet latency average = 20.9294
	minimum = 7
	maximum = 40
Network latency average = 20.9294
	minimum = 7
	maximum = 40
Slowest packet = 5218
Flit latency average = 21.2111
	minimum = 7
	maximum = 40
Slowest flit = 5218
Fragmentation average = 0
	minimum = 0
	maximum = 0
Injected packet rate average = 0.011125
	minimum = 0.004 (at node 0)
	maximum = 0.02 (at node 15)
Accepted packet rate average = 0.01125
	minimum = 0.004 (at node 5)
	maximum = 0.024 (at node 10)
Injected flit rate average = 0.011125
	minimum = 0.004 (at node 0)
	maximum = 0.02 (at node 15)
Accepted flit rate average= 0.01125
	minimum = 0.004 (at node 5)
	maximum = 0.024 (at node 10)
Injected packet length average = 1
Accepted packet length average = 1
Total in-flight flits = 4 (4 measured)
latency change    = 0.106846
throughput change = 0.0222222
Class 0:
Packet latency average = 21.0242
	minimum = 7
	maximum = 47
Network latency average = 21.0242
	minimum = 7
	maximum = 47
Slowest packet = 5290
Flit latency average = 21.1706
	minimum = 7
	maximum = 47
Slowest flit = 5290
Fragmentation average = 0
	minimum = 0
	maximum = 0
Injected packet rate average = 0.0105625
	minimum = 0.003 (at node 0)
	maximum = 0.016 (at node 6)
Accepted packet rate average = 0.010625
	minimum = 0.007 (at node 5)
	maximum = 0.018 (at node 10)
Injected flit rate average = 0.0105625
	minimum = 0.003 (at node 0)
	maximum = 0.016 (at node 6)
Accepted flit rate average= 0.010625
	minimum = 0.007 (at node 5)
	maximum = 0.018 (at node 10)
Injected packet length average = 1
Accepted packet length average = 1
Total in-flight flits = 4 (4 measured)
latency change    = 0.00451054
throughput change = 0.0588235
Class 0:
Packet latency average = 20.7872
	minimum = 7
	maximum = 47
Network latency average = 20.7872
	minimum = 7
	maximum = 47
Slowest packet = 5290
Flit latency average = 20.8958
	minimum = 7
	maximum = 47
Slowest flit = 5290
Fragmentation average = 0
	minimum = 0
	maximum = 0
Injected packet rate average = 0.00991667
	minimum = 0.006 (at node 9)
	maximum = 0.0146667 (at node 6)
Accepted packet rate average = 0.01
	minimum = 0.006 (at node 5)
	maximum = 0.0146667 (at node 2)
Injected flit rate average = 0.00991667
	minimum = 0.006 (at node 9)
	maximum = 0.0146667 (at node 6)
Accepted flit rate average= 0.01
	minimum = 0.006 (at node 5)
	maximum = 0.0146667 (at node 2)
Injected packet length average = 1
Accepted packet length average = 1
Total in-flight flits = 3 (3 measured)
latency change    = 0.0114016
throughput change = 0.0625
Class 0:
Packet latency average = 20.7697
	minimum = 7
	maximum = 47
Network latency average = 20.7697
	minimum = 7
	maximum = 47
Slowest packet = 5290
Flit latency average = 20.8509
	minimum = 7
	maximum = 47
Slowest flit = 5290
Fragmentation average = 0
	minimum = 0
	maximum = 0
Injected packet rate average = 0.00996875
	minimum = 0.0065 (at node 14)
	maximum = 0.0155 (at node 11)
Accepted packet rate average = 0.0100625
	minimum = 0.0065 (at node 5)
	maximum = 0.013 (at node 2)
Injected flit rate average = 0.00996875
	minimum = 0.0065 (at node 14)
	maximum = 0.0155 (at node 11)
Accepted flit rate average= 0.0100625
	minimum = 0.0065 (at node 5)
	maximum = 0.013 (at node 2)
Injected packet length average = 1
Accepted packet length average = 1
Total in-flight flits = 2 (2 measured)
latency change    = 0.000843437
throughput change = 0.00621118
Class 0:
Packet latency average = 20.7172
	minimum = 7
	maximum = 47
Network latency average = 20.7172
	minimum = 7
	maximum = 47
Slowest packet = 5290
Flit latency average = 20.7843
	minimum = 7
	maximum = 47
Slowest flit = 5290
Fragmentation average = 0
	minimum = 0
	maximum = 0
Injected packet rate average = 0.0098
	minimum = 0.0072 (at node 0)
	maximum = 0.0148 (at node 11)
Accepted packet rate average = 0.00985
	minimum = 0.0076 (at node 5)
	maximum = 0.012 (at node 10)
Injected flit rate average = 0.0098
	minimum = 0.0072 (at node 0)
	maximum = 0.0148 (at node 11)
Accepted flit rate average= 0.00985
	minimum = 0.0076 (at node 5)
	maximum = 0.012 (at node 10)
Injected packet length average = 1
Accepted packet length average = 1
Total in-flight flits = 3 (3 measured)
latency change    = 0.00253376
throughput change = 0.0215736
Class 0:
Packet latency average = 20.707
	minimum = 7
	maximum = 47
Network latency average = 20.707
	minimum = 7
	maximum = 47
Slowest packet = 5290
Flit latency average = 20.7626
	minimum = 7
	maximum = 47
Slowest flit = 5290
Fragmentation average = 0
	minimum = 0
	maximum = 0
Injected packet rate average = 0.009875
	minimum = 0.00733333 (at node 12)
	maximum = 0.015 (at node 7)
Accepted packet rate average = 0.00991667
	minimum = 0.007 (at node 14)
	maximum = 0.0123333 (at node 9)
Injected flit rate average = 0.009875
	minimum = 0.00733333 (at node 12)
	maximum = 0.015 (at node 7)
Accepted flit rate average= 0.00991667
	minimum = 0.007 (at node 14)
	maximum = 0.0123333 (at node 9)
Injected packet length average = 1
Accepted packet length average = 1
Total in-flight flits = 3 (3 measured)
latency change    = 0.000493421
throughput change = 0.00672269
Draining all recorded packets ...
Draining remaining packets ...
Time taken is 4557 cycles
Class 0:
Packet latency average = 21.0946
	minimum = 7
	maximum = 64
Network latency average = 21.0946
	minimum = 7
	maximum = 64
Slowest packet = 5685
Flit latency average = 21.0946
	minimum = 7
	maximum = 64
Slowest flit = 5685
Fragmentation average = 0
	minimum = 0
	maximum = 0
Injected packet rate average = 0.01
	minimum = 0.002 (at node 0)
	maximum = 0.018 (at node 3)
Accepted packet rate average = 0.00925
	minimum = 0.002 (at node 10)
	maximum = 0.016 (at node 5)
Injected flit rate average = 0.01
	minimum = 0.002 (at node 0)
	maximum = 0.018 (at node 3)
Accepted flit rate average= 0.00925
	minimum = 0.002 (at node 10)
	maximum = 0.016 (at node 5)
Injected packet length average = 1
Accepted packet length average = 1
Total in-flight flits = 6 (0 measured)
latency change    = 1
throughput change = 1
Class 0:
Packet latency average = 20.6711
	minimum = 7
	maximum = 64
Network latency average = 20.6711
	minimum = 7
	maximum = 64
Slowest packet = 5685
Flit latency average = 20.6711
	minimum = 7
	maximum = 64
Slowest flit = 5685
Fragmentation average = 0
	minimum = 0
	maximum = 0
Injected packet rate average = 0.0094375
	minimum = 0.006 (at node 0)
	maximum = 0.014 (at node 3)
Accepted packet rate average = 0.0093125
	minimum = 0.007 (at node 8)
	maximum = 0.016 (at node 15)
Injected flit rate average = 0.0094375
	minimum = 0.006 (at node 0)
	maximum = 0.014 (at node 3)
Accepted flit rate average= 0.0093125
	minimum = 0.007 (at node 8)
	maximum = 0.016 (at node 15)
Injected packet length average = 1
Accepted packet length average = 1
Total in-flight flits = 2 (0 measured)
latency change    = 0.0204853
throughput change = 0.00671141
Class 0:
Packet latency average = 20.3857
	minimum = 7
	maximum = 42
Network latency average = 20.3857
	minimum = 7
	maximum = 42
Slowest packet = 5848
Flit latency average = 20.3857
	minimum = 7
	maximum = 42
Slowest flit = 5848
Fragmentation average = 0
	minimum = 0
	maximum = 0
Injected packet rate average = 0.009
	minimum = 0 (at node 6)
	maximum = 0.016 (at node 15)
Accepted packet rate average = 0.00875
	minimum = 0.004 (at node 13)
	maximum = 0.012 (at node 4)
Injected flit rate average = 0.009
	minimum = 0 (at node 6)
	maximum = 0.016 (at node 15)
Accepted flit rate average= 0.00875
	minimum = 0.004 (at node 13)
	maximum = 0.012 (at node 4)
Injected packet length average = 1
Accepted packet length average = 1
Total in-flight flits = 4 (0 measured)
latency change    = 0.0140013
throughput change = 0.0642857
Warmed up ...Time used is 1500 cycles
Class 0:
Packet latency average = 19.5625
	minimum = 7
	maximum = 45
Network latency average = 19.5625
	minimum = 7
	maximum = 45
Slowest packet = 5944
Flit latency average = 19.9762
	minimum = 7
	maximum = 45
Slowest flit = 5944
Fragmentation average = 0
	minimum = 0
	maximum = 0
Injected packet rate average = 0.010375
	minimum = 0.002 (at node 15)
	maximum = 0.02 (at node 7)
Accepted packet rate average = 0.0105
	minimum = 0.002 (at node 13)
	maximum = 0.016 (at node 2)
Injected flit rate average = 0.010375
	minimum = 0.002 (at node 15)
	maximum = 0.02 (at node 7)
Accepted flit rate average= 0.0105
	minimum = 0.002 (at node 13)
	maximum = 0.016 (at node 2)
Injected packet length average = 1
Accepted packet length average = 1
Total in-flight flits = 3 (3 measured)
latency change    = 0.0420812
throughput change = 0.166667
Class 0:
Packet latency average = 20.2468
	minimum = 7
	maximum = 45
Network latency average = 20.2468
	minimum = 7
	maximum = 45
Slowest packet = 5944
Flit latency average = 20.4444
	minimum = 7
	maximum = 45
Slowest flit = 5944
Fragmentation average = 0
	minimum = 0
	maximum = 0
Injected packet rate average = 0.0100625
	minimum = 0.005 (at node 11)
	maximum = 0.017 (at node 7)
Accepted packet rate average = 0.010125
	minimum = 0.006 (at node 7)
	maximum = 0.014 (at node 4)
Injected flit rate average = 0.0100625
	minimum = 0.005 (at node 11)
	maximum = 0.017 (at node 7)
Accepted flit rate average= 0.010125
	minimum = 0.006 (at node 7)
	maximum = 0.014 (at node 4)
Injected packet length average = 1
Accepted packet length average = 1
Total in-flight flits = 3 (3 measured)
latency change    = 0.0337996
throughput change = 0.037037
Class 0:
Packet latency average = 20.4612
	minimum = 7
	maximum = 45
Network latency average = 20.4612
	minimum = 7
	maximum = 45
Slowest packet = 5944
Flit latency average = 20.5932
	minimum = 7
	maximum = 45
Slowest flit = 5944
Fragmentation average = 0
	minimum = 0
	maximum = 0
Injected packet rate average = 0.00970833
	minimum = 0.00666667 (at node 11)
	maximum = 0.0153333 (at node 7)
Accepted packet rate average = 0.00983333
	minimum = 0.006 (at node 9)
	maximum = 0.0133333 (at node 3)
Injected flit rate average = 0.00970833
	minimum = 0.00666667 (at node 11)
	maximum = 0.0153333 (at node 7)
Accepted flit rate average= 0.00983333
	minimum = 0.006 (at node 9)
	maximum = 0.0133333 (at node 3)
Injected packet length average = 1
Accepted packet length average = 1
Total in-flight flits = 1 (1 measured)
latency change    = 0.010477
throughput change = 0.029661
Class 0:
Packet latency average = 20.2658
	minimum = 7
	maximum = 45
Network latency average = 20.2658
	minimum = 7
	maximum = 45
Slowest packet = 5944
Flit latency average = 20.3705
	minimum = 7
	maximum = 45
Slowest flit = 5944
Fragmentation average = 0
	minimum = 0
	maximum = 0
Injected packet rate average = 0.0095
	minimum = 0.006 (at node 12)
	maximum = 0.013 (at node 0)
Accepted packet rate average = 0.00953125
	minimum = 0.0055 (at node 15)
	maximum = 0.012 (at node 8)
Injected flit rate average = 0.0095
	minimum = 0.006 (at node 12)
	maximum = 0.013 (at node 0)
Accepted flit rate average= 0.00953125
	minimum = 0.0055 (at node 15)
	maximum = 0.012 (at node 8)
Injected packet length average = 1
Accepted packet length average = 1
Total in-flight flits = 3 (3 measured)
latency change    = 0.00964316
throughput change = 0.031694
Draining all recorded packets ...
Draining remaining packets ...
Time taken is 3561 cycles
Class 0:
Packet latency average = 19.8485
	minimum = 7
	maximum = 48
Network latency average = 19.8485
	minimum = 7
	maximum = 48
Slowest packet = 6220
Flit latency average = 19.8485
	minimum = 7
	maximum = 48
Slowest flit = 6220
Fragmentation average = 0
	minimum = 0
	maximum = 0
Injected packet rate average = 0.00875
	minimum = 0 (at node 15)
	maximum = 0.014 (at node 0)
Accepted packet rate average = 0.00825
	minimum = 0 (at node 3)
	maximum = 0.02 (at node 11)
Injected flit rate average = 0.00875
	minimum = 0 (at node 15)
	maximum = 0.014 (at node 0)
Accepted flit rate average= 0.00825
	minimum = 0 (at node 3)
	maximum = 0.02 (at node 11)
Injected packet length average = 1
Accepted packet length average = 1
Total in-flight flits = 4 (0 measured)
latency change    = 1
throughput change = 1
Class 0:
Packet latency average = 19.8199
	minimum = 7
	maximum = 48
Network latency average = 19.8199
	minimum = 7
	maximum = 48
Slowest packet = 6220
Flit latency average = 19.8199
	minimum = 7
	maximum = 48
Slowest flit = 6220
Fragmentation average = 0
	minimum = 0
	maximum = 0
Injected packet rate average = 0.0103125
	minimum = 0.004 (at node 15)
	maximum = 0.017 (at node 0)
Accepted packet rate average = 0.0100625
	minimum = 0.006 (at node 2)
	maximum = 0.016 (at node 11)
Injected flit rate average = 0.0103125
	minimum = 0.004 (at node 15)
	maximum = 0.017 (at node 0)
Accepted flit rate average= 0.0100625
	minimum = 0.006 (at node 2)
	maximum = 0.016 (at node 11)
Injected packet length average = 1
Accepted packet length average = 1
Total in-flight flits = 4 (0 measured)
latency change    = 0.00144345
throughput change = 0.180124
Class 0:
Packet latency average = 19.1831
	minimum = 7
	maximum = 37
Network latency average = 19.1831
	minimum = 7
	maximum = 37
Slowest packet = 6375
Flit latency average = 19.1831
	minimum = 7
	maximum = 37
Slowest flit = 6375
Fragmentation average = 0
	minimum = 0
	maximum = 0
Injected packet rate average = 0.00875
	minimum = 0 (at node 13)
	maximum = 0.016 (at node 10)
Accepted packet rate average = 0.008875
	minimum = 0.002 (at node 0)
	maximum = 0.018 (at node 15)
Injected flit rate average = 0.00875
	minimum = 0 (at node 13)
	maximum = 0.016 (at node 10)
Accepted flit rate average= 0.008875
	minimum = 0.002 (at node 0)
	maximum = 0.018 (at node 15)
Injected packet length average = 1
Accepted packet length average = 1
Total in-flight flits = 3 (0 measured)
latency change    = 0.0331947
throughput change = 0.133803
Warmed up ...Time used is 1500 cycles
Class 0:
Packet latency average = 20.2754
	minimum = 7
	maximum = 48
Network latency average = 20.2754
	minimum = 7
	maximum = 48
Slowest packet = 6492
Flit latency average = 20.4167
	minimum = 7
	maximum = 48
Slowest flit = 6492
Fragmentation average = 0
	minimum = 0
	maximum = 0
Injected packet rate average = 0.00875
	minimum = 0.002 (at node 2)
	maximum = 0.02 (at node 13)
Accepted packet rate average = 0.009
	minimum = 0.004 (at node 6)
	maximum = 0.014 (at node 1)
Injected flit rate average = 0.00875
	minimum = 0.002 (at node 2)
	maximum = 0.02 (at node 13)
Accepted flit rate average= 0.009
	minimum = 0.004 (at node 6)
	maximum = 0.014 (at node 1)
Injected packet length average = 1
Accepted packet length average = 1
Total in-flight flits = 1 (1 measured)
latency change    = 0.0538715
throughput change = 0.0138889
Class 0:
Packet latency average = 20.4082
	minimum = 7
	maximum = 49
Network latency average = 20.4082
	minimum = 7
	maximum = 49
Slowest packet = 6526
Flit latency average = 20.4733
	minimum = 7
	maximum = 49
Slowest flit = 6526
Fragmentation average = 0
	minimum = 0
	maximum = 0
Injected packet rate average = 0.0093125
	minimum = 0.007 (at node 0)
	maximum = 0.012 (at node 3)
Accepted packet rate average = 0.009375
	minimum = 0.006 (at node 2)
	maximum = 0.014 (at node 3)
Injected flit rate average = 0.0093125
	minimum = 0.007 (at node 0)
	maximum = 0.012 (at node 3)
Accepted flit rate average= 0.009375
	minimum = 0.006 (at node 2)
	maximum = 0.014 (at node 3)
Injected packet length average = 1
Accepted packet length average = 1
Total in-flight flits = 2 (2 measured)
latency change    = 0.00650725
throughput change = 0.04
Class 0:
Packet latency average = 20.6589
	minimum = 7
	maximum = 49
Network latency average = 20.6589
	minimum = 7
	maximum = 49
Slowest packet = 6526
Flit latency average = 20.7005
	minimum = 7
	maximum = 49
Slowest flit = 6526
Fragmentation average = 0
	minimum = 0
	maximum = 0
Injected packet rate average = 0.00920833
	minimum = 0.00666667 (at node 2)
	maximum = 0.012 (at node 8)
Accepted packet rate average = 0.00904167
	minimum = 0.00666667 (at node 2)
	maximum = 0.012 (at node 3)
Injected flit rate average = 0.00920833
	minimum = 0.00666667 (at node 2)
	maximum = 0.012 (at node 8)
Accepted flit rate average= 0.00904167
	minimum = 0.00666667 (at node 2)
	maximum = 0.012 (at node 3)
Injected packet length average = 1
Accepted packet length average = 1
Total in-flight flits = 7 (7 measured)
latency change    = 0.012136
throughput change = 0.0368664
Class 0:
Packet latency average = 20.6283
	minimum = 7
	maximum = 49
Network latency average = 20.6283
	minimum = 7
	maximum = 49
Slowest packet = 6526
Flit latency average = 20.658
	minimum = 7
	maximum = 49
Slowest flit = 6526
Fragmentation average = 0
	minimum = 0
	maximum = 0
Injected packet rate average = 0.00965625
	minimum = 0.007 (at node 6)
	maximum = 0.012 (at node 3)
Accepted packet rate average = 0.00959375
	minimum = 0.0075 (at node 9)
	maximum = 0.013 (at node 3)
Injected flit rate average = 0.00965625
	minimum = 0.007 (at node 6)
	maximum = 0.012 (at node 3)
Accepted flit rate average= 0.00959375
	minimum = 0.0075 (at node 9)
	maximum = 0.013 (at node 3)
Injected packet length average = 1
Accepted packet length average = 1
Total in-flight flits = 5 (5 measured)
latency change    = 0.00148287
throughput change = 0.0575461
Class 0:
Packet latency average = 20.8734
	minimum = 7
	maximum = 49
Network latency average = 20.8734
	minimum = 7
	maximum = 49
Slowest packet = 6526
Flit latency average = 20.8953
	minimum = 7
	maximum = 49
Slowest flit = 6526
Fragmentation average = 0
	minimum = 0
	maximum = 0
Injected packet rate average = 0.009525
	minimum = 0.0076 (at node 12)
	maximum = 0.012 (at node 8)
Accepted packet rate average = 0.00955
	minimum = 0.0064 (at node 9)
	maximum = 0.0128 (at node 3)
Injected flit rate average = 0.009525
	minimum = 0.0076 (at node 12)
	maximum = 0.012 (at node 8)
Accepted flit rate average= 0.00955
	minimum = 0.0064 (at node 9)
	maximum = 0.0128 (at node 3)
Injected packet length average = 1
Accepted packet length average = 1
Total in-flight flits = 2 (2 measured)
latency change    = 0.0117404
throughput change = 0.00458115
Class 0:
Packet latency average = 20.7002
	minimum = 7
	maximum = 49
Network latency average = 20.7002
	minimum = 7
	maximum = 49
Slowest packet = 6526
Flit latency average = 20.72
	minimum = 7
	maximum = 49
Slowest flit = 6526
Fragmentation average = 0
	minimum = 0
	maximum = 0
Injected packet rate average = 0.00939583
	minimum = 0.007 (at node 12)
	maximum = 0.0116667 (at node 8)
Accepted packet rate average = 0.009375
	minimum = 0.00666667 (at node 9)
	maximum = 0.0126667 (at node 14)
Injected flit rate average = 0.00939583
	minimum = 0.007 (at node 12)
	maximum = 0.0116667 (at node 8)
Accepted flit rate average= 0.009375
	minimum = 0.00666667 (at node 9)
	maximum = 0.0126667 (at node 14)
Injected packet length average = 1
Accepted packet length average = 1
Total in-flight flits = 4 (4 measured)
latency change    = 0.00836354
throughput change = 0.0186667
Class 0:
Packet latency average = 20.5502
	minimum = 7
	maximum = 49
Network latency average = 20.5502
	minimum = 7
	maximum = 49
Slowest packet = 6526
Flit latency average = 20.5675
	minimum = 7
	maximum = 49
Slowest flit = 6526
Fragmentation average = 0
	minimum = 0
	maximum = 0
Injected packet rate average = 0.00969643
	minimum = 0.00742857 (at node 12)
	maximum = 0.0131429 (at node 4)
Accepted packet rate average = 0.00966071
	minimum = 0.00714286 (at node 9)
	maximum = 0.0134286 (at node 14)
Injected flit rate average = 0.00969643
	minimum = 0.00742857 (at node 12)
	maximum = 0.0131429 (at node 4)
Accepted flit rate average= 0.00966071
	minimum = 0.00714286 (at node 9)
	maximum = 0.0134286 (at node 14)
Injected packet length average = 1
Accepted packet length average = 1
Total in-flight flits = 5 (5 measured)
latency change    = 0.00730105
throughput change = 0.0295749
Draining all recorded packets ...
Draining remaining packets ...
Time taken is 5059 cycles
Class 0:
Packet latency average = 20.4684
	minimum = 7
	maximum = 37
Network latency average = 20.4684
	minimum = 7
	maximum = 37
Slowest packet = 6998
Flit latency average = 20.4684
	minimum = 7
	maximum = 37
Slowest flit = 6998
Fragmentation average = 0
	minimum = 0
	maximum = 0
Injected packet rate average = 0.010375
	minimum = 0.004 (at node 15)
	maximum = 0.016 (at node 12)
Accepted packet rate average = 0.009875
	minimum = 0.002 (at node 0)
	maximum = 0.016 (at node 1)
Injected flit rate average = 0.010375
	minimum = 0.004 (at node 15)
	maximum = 0.016 (at node 12)
Accepted flit rate average= 0.009875
	minimum = 0.002 (at node 0)
	maximum = 0.016 (at node 1)
Injected packet length average = 1
Accepted packet length average = 1
Total in-flight flits = 4 (0 measured)
latency change    = 1
throughput change = 1
Class 0:
Packet latency average = 20.1373
	minimum = 7
	maximum = 47
Network latency average = 20.1373
	minimum = 7
	maximum = 47
Slowest packet = 7090
Flit latency average = 20.1373
	minimum = 7
	maximum = 47
Slowest flit = 7090
Fragmentation average = 0
	minimum = 0
	maximum = 0
Injected packet rate average = 0.009625
	minimum = 0.007 (at node 15)
	maximum = 0.015 (at node 8)
Accepted packet rate average = 0.0095625
	minimum = 0.003 (at node 6)
	maximum = 0.013 (at node 4)
Injected flit rate average = 0.009625
	minimum = 0.007 (at node 15)
	maximum = 0.015 (at node 8)
Accepted flit rate average= 0.0095625
	minimum = 0.003 (at node 6)
	maximum = 0.013 (at node 4)
Injected packet length average = 1
Accepted packet length average = 1
Total in-flight flits = 1 (0 measured)
latency change    = 0.0164421
throughput change = 0.0326797
Class 0:
Packet latency average = 21.2299
	minimum = 7
	maximum = 37
Network latency average = 21.2299
	minimum = 7
	maximum = 37
Slowest packet = 7140
Flit latency average = 21.2299
	minimum = 7
	maximum = 37
Slowest flit = 7140
Fragmentation average = 0
	minimum = 0
	maximum = 0
Injected packet rate average = 0.011125
	minimum = 0.002 (at node 6)
	maximum = 0.022 (at node 15)
Accepted packet rate average = 0.010875
	minimum = 0.002 (at node 6)
	maximum = 0.028 (at node 4)
Injected flit rate average = 0.011125
	minimum = 0.002 (at node 6)
	maximum = 0.022 (at node 15)
Accepted flit rate average= 0.010875
	minimum = 0.002 (at node 6)
	maximum = 0.028 (at node 4)
Injected packet length average = 1
Accepted packet length average = 1
Total in-flight flits = 3 (0 measured)
latency change    = 0.0514666
throughput change = 0.12069
Warmed up ...Time used is 1500 cycles
Class 0:
Packet latency average = 20.0811
	minimum = 7
	maximum = 37
Network latency average = 20.0811
	minimum = 7
	maximum = 37
Slowest packet = 7242
Flit latency average = 20.4805
	minimum = 7
	maximum = 42
Slowest flit = 7224
Fragmentation average = 0
	minimum = 0
	maximum = 0
Injected packet rate average = 0.009875
	minimum = 0.002 (at node 15)
	maximum = 0.018 (at node 3)
Accepted packet rate average = 0.009625
	minimum = 0 (at node 11)
	maximum = 0.014 (at node 3)
Injected flit rate average = 0.009875
	minimum = 0.002 (at node 15)
	maximum = 0.018 (at node 3)
Accepted flit rate average= 0.009625
	minimum = 0 (at node 11)
	maximum = 0.014 (at node 3)
Injected packet length average = 1
Accepted packet length average = 1
Total in-flight flits = 5 (5 measured)
latency change    = 0.0572083
throughput change = 0.12987
Class 0:
Packet latency average = 20.8636
	minimum = 7
	maximum = 56
Network latency average = 20.8636
	minimum = 7
	maximum = 56
Slowest packet = 7365
Flit latency average = 21.0446
	minimum = 7
	maximum = 56
Slowest flit = 7365
Fragmentation average = 0
	minimum = 0
	maximum = 0
Injected packet rate average = 0.00975
	minimum = 0.004 (at node 13)
	maximum = 0.014 (at node 1)
Accepted packet rate average = 0.0098125
	minimum = 0.006 (at node 11)
	maximum = 0.015 (at node 10)
Injected flit rate average = 0.00975
	minimum = 0.004 (at node 13)
	maximum = 0.014 (at node 1)
Accepted flit rate average= 0.0098125
	minimum = 0.006 (at node 11)
	maximum = 0.015 (at node 10)
Injected packet length average = 1
Accepted packet length average = 1
Total in-flight flits = 2 (2 measured)
latency change    = 0.0375081
throughput change = 0.0191083
Class 0:
Packet latency average = 20.7746
	minimum = 7
	maximum = 56
Network latency average = 20.7746
	minimum = 7
	maximum = 56
Slowest packet = 7365
Flit latency average = 20.8907
	minimum = 7
	maximum = 56
Slowest flit = 7365
Fragmentation average = 0
	minimum = 0
	maximum = 0
Injected packet rate average = 0.01025
	minimum = 0.006 (at node 13)
	maximum = 0.0153333 (at node 4)
Accepted packet rate average = 0.0102917
	minimum = 0.006 (at node 9)
	maximum = 0.0166667 (at node 3)
Injected flit rate average = 0.01025
	minimum = 0.006 (at node 13)
	maximum = 0.0153333 (at node 4)
[...]
	minimum = 7
	maximum = 42
Slowest packet = 28887
Flit latency average = 20.7816
	minimum = 7
	maximum = 42
Slowest flit = 28887
Fragmentation average = 0
	minimum = 0
	maximum = 0
Injected packet rate average = 0.01075
	minimum = 0.004 (at node 1)
	maximum = 0.022 (at node 8)
Accepted packet rate average = 0.010875
	minimum = 0.002 (at node 2)
	maximum = 0.022 (at node 6)
Injected flit rate average = 0.01075
	minimum = 0.004 (at node 1)
	maximum = 0.022 (at node 8)
Accepted flit rate average= 0.010875
	minimum = 0.002 (at node 2)
	maximum = 0.022 (at node 6)
Injected packet length average = 1
Accepted packet length average = 1
Total in-flight flits = 3 (3 measured)
latency change    = 0.0210114
throughput change = 0.0229885
Class 0:
Packet latency average = 20.1293
	minimum = 7
	maximum = 42
Network latency average = 20.1293
	minimum = 7
	maximum = 42
Slowest packet = 28887
Flit latency average = 20.245
	minimum = 7
	maximum = 42
Slowest flit = 28887
Fragmentation average = 0
	minimum = 0
	maximum = 0
Injected packet rate average = 0.0094375
	minimum = 0.006 (at node 1)
	maximum = 0.016 (at node 12)
Accepted packet rate average = 0.0094375
	minimum = 0.004 (at node 2)
	maximum = 0.015 (at node 9)
Injected flit rate average = 0.0094375
	minimum = 0.006 (at node 1)
	maximum = 0.016 (at node 12)
Accepted flit rate average= 0.0094375
	minimum = 0.004 (at node 2)
	maximum = 0.015 (at node 9)
Injected packet length average = 1
Accepted packet length average = 1
Total in-flight flits = 4 (4 measured)
latency change    = 0.023506
throughput change = 0.152318
Class 0:
Packet latency average = 20.7104
	minimum = 7
	maximum = 43
Network latency average = 20.7104
	minimum = 7
	maximum = 43
Slowest packet = 29077
Flit latency average = 20.7778
	minimum = 7
	maximum = 43
Slowest flit = 29077
Fragmentation average = 0
	minimum = 0
	maximum = 0
Injected packet rate average = 0.009375
	minimum = 0.006 (at node 1)
	maximum = 0.016 (at node 12)
Accepted packet rate average = 0.009375
	minimum = 0.006 (at node 4)
	maximum = 0.0153333 (at node 9)
Injected flit rate average = 0.009375
	minimum = 0.006 (at node 1)
	maximum = 0.016 (at node 12)
Accepted flit rate average= 0.009375
	minimum = 0.006 (at node 4)
	maximum = 0.0153333 (at node 9)
Injected packet length average = 1
Accepted packet length average = 1
Total in-flight flits = 4 (4 measured)
latency change    = 0.028061
throughput change = 0.00666667
Class 0:
Packet latency average = 20.3515
	minimum = 7
	maximum = 43
Network latency average = 20.3515
	minimum = 7
	maximum = 43
Slowest packet = 29077
Flit latency average = 20.4074
	minimum = 7
	maximum = 43
Slowest flit = 29077
Fragmentation average = 0
	minimum = 0
	maximum = 0
Injected packet rate average = 0.0093125
	minimum = 0.0055 (at node 1)
	maximum = 0.014 (at node 3)
Accepted packet rate average = 0.00928125
	minimum = 0.0055 (at node 4)
	maximum = 0.014 (at node 6)
Injected flit rate average = 0.0093125
	minimum = 0.0055 (at node 1)
	maximum = 0.014 (at node 3)
Accepted flit rate average= 0.00928125
	minimum = 0.0055 (at node 4)
	maximum = 0.014 (at node 6)
Injected packet length average = 1
Accepted packet length average = 1
Total in-flight flits = 5 (5 measured)
latency change    = 0.0176336
throughput change = 0.010101
Class 0:
Packet latency average = 20.3698
	minimum = 7
	maximum = 51
Network latency average = 20.3698
	minimum = 7
	maximum = 51
Slowest packet = 29166
Flit latency average = 20.4124
	minimum = 7
	maximum = 51
Slowest flit = 29166
Fragmentation average = 0
	minimum = 0
	maximum = 0
Injected packet rate average = 0.00975
	minimum = 0.0064 (at node 1)
	maximum = 0.0136 (at node 3)
Accepted packet rate average = 0.0097
	minimum = 0.0064 (at node 15)
	maximum = 0.0144 (at node 6)
Injected flit rate average = 0.00975
	minimum = 0.0064 (at node 1)
	maximum = 0.0136 (at node 3)
Accepted flit rate average= 0.0097
	minimum = 0.0064 (at node 15)
	maximum = 0.0144 (at node 6)
Injected packet length average = 1
Accepted packet length average = 1
Total in-flight flits = 6 (6 measured)
latency change    = 0.000896221
throughput change = 0.0431701
Draining all recorded packets ...
Draining remaining packets ...
Time taken is 4027 cycles
Class 0:
Packet latency average = 20.5946
	minimum = 7
	maximum = 47
Network latency average = 20.5946
	minimum = 7
	maximum = 47
Slowest packet = 29299
Flit latency average = 20.5946
	minimum = 7
	maximum = 47
Slowest flit = 29299
Fragmentation average = 0
	minimum = 0
	maximum = 0
Injected packet rate average = 0.00975
	minimum = 0.002 (at node 12)
	maximum = 0.018 (at node 13)
Accepted packet rate average = 0.00925
	minimum = 0.004 (at node 2)
	maximum = 0.016 (at node 4)
Injected flit rate average = 0.00975
	minimum = 0.002 (at node 12)
	maximum = 0.018 (at node 13)
Accepted flit rate average= 0.00925
	minimum = 0.004 (at node 2)
	maximum = 0.016 (at node 4)
Injected packet length average = 1
Accepted packet length average = 1
Total in-flight flits = 4 (0 measured)
latency change    = 1
throughput change = 1
Class 0:
Packet latency average = 20.5429
	minimum = 7
	maximum = 47
Network latency average = 20.5429
	minimum = 7
	maximum = 47
Slowest packet = 29299
Flit latency average = 20.5429
	minimum = 7
	maximum = 47
Slowest flit = 29299
Fragmentation average = 0
	minimum = 0
	maximum = 0
Injected packet rate average = 0.009125
	minimum = 0.004 (at node 12)
	maximum = 0.014 (at node 4)
Accepted packet rate average = 0.00875
	minimum = 0.003 (at node 13)
	maximum = 0.015 (at node 6)
Injected flit rate average = 0.009125
	minimum = 0.004 (at node 12)
	maximum = 0.014 (at node 4)
Accepted flit rate average= 0.00875
	minimum = 0.003 (at node 13)
	maximum = 0.015 (at node 6)
Injected packet length average = 1
Accepted packet length average = 1
Total in-flight flits = 6 (0 measured)
latency change    = 0.00251851
throughput change = 0.0571429
Class 0:
Packet latency average = 20.8933
	minimum = 7
	maximum = 47
Network latency average = 20.8933
	minimum = 7
	maximum = 47
Slowest packet = 29425
Flit latency average = 20.8933
	minimum = 7
	maximum = 47
Slowest flit = 29425
Fragmentation average = 0
	minimum = 0
	maximum = 0
Injected packet rate average = 0.009
	minimum = 0.004 (at node 6)
	maximum = 0.018 (at node 5)
Accepted packet rate average = 0.009375
	minimum = 0.002 (at node 2)
	maximum = 0.014 (at node 0)
Injected flit rate average = 0.009
	minimum = 0.004 (at node 6)
	maximum = 0.018 (at node 5)
Accepted flit rate average= 0.009375
	minimum = 0.002 (at node 2)
	maximum = 0.014 (at node 0)
Injected packet length average = 1
Accepted packet length average = 1
Total in-flight flits = 3 (0 measured)
latency change    = 0.0167745
throughput change = 0.0666667
Warmed up ...Time used is 1500 cycles
Class 0:
Packet latency average = 18.961
	minimum = 7
	maximum = 42
Network latency average = 18.961
	minimum = 7
	maximum = 42
Slowest packet = 29485
Flit latency average = 19.0125
	minimum = 7
	maximum = 42
Slowest flit = 29485
Fragmentation average = 0
	minimum = 0
	maximum = 0
Injected packet rate average = 0.009625
	minimum = 0.004 (at node 6)
	maximum = 0.02 (at node 1)
Accepted packet rate average = 0.01
	minimum = 0.004 (at node 1)
	maximum = 0.016 (at node 10)
Injected flit rate average = 0.009625
	minimum = 0.004 (at node 6)
	maximum = 0.02 (at node 1)
Accepted flit rate average= 0.01
	minimum = 0.004 (at node 1)
	maximum = 0.016 (at node 10)
Injected packet length average = 1
Accepted packet length average = 1
Total in-flight flits = 0 (0 measured)
latency change    = 0.101909
throughput change = 0.0625
Class 0:
Packet latency average = 20.119
	minimum = 7
	maximum = 47
Network latency average = 20.119
	minimum = 7
	maximum = 47
Slowest packet = 29627
Flit latency average = 20.1228
	minimum = 7
	maximum = 47
Slowest flit = 29627
Fragmentation average = 0
	minimum = 0
	maximum = 0
Injected packet rate average = 0.0106875
	minimum = 0.006 (at node 6)
	maximum = 0.016 (at node 13)
Accepted packet rate average = 0.0106875
	minimum = 0.005 (at node 15)
	maximum = 0.016 (at node 12)
Injected flit rate average = 0.0106875
	minimum = 0.006 (at node 6)
	maximum = 0.016 (at node 13)
Accepted flit rate average= 0.0106875
	minimum = 0.005 (at node 15)
	maximum = 0.016 (at node 12)
Injected packet length average = 1
Accepted packet length average = 1
Total in-flight flits = 3 (3 measured)
latency change    = 0.0575578
throughput change = 0.0643275
Class 0:
Packet latency average = 20.1958
	minimum = 7
	maximum = 47
Network latency average = 20.1958
	minimum = 7
	maximum = 47
Slowest packet = 29627
Flit latency average = 20.1975
	minimum = 7
	maximum = 47
Slowest flit = 29627
Fragmentation average = 0
	minimum = 0
	maximum = 0
Injected packet rate average = 0.01025
	minimum = 0.00533333 (at node 11)
	maximum = 0.0146667 (at node 8)
Accepted packet rate average = 0.010125
	minimum = 0.00666667 (at node 1)
	maximum = 0.0146667 (at node 4)
Injected flit rate average = 0.01025
	minimum = 0.00533333 (at node 11)
	maximum = 0.0146667 (at node 8)
Accepted flit rate average= 0.010125
	minimum = 0.00666667 (at node 1)
	maximum = 0.0146667 (at node 4)
Injected packet length average = 1
Accepted packet length average = 1
Total in-flight flits = 6 (6 measured)
latency change    = 0.00380206
throughput change = 0.0555556
Class 0:
Packet latency average = 20.3013
	minimum = 7
	maximum = 47
Network latency average = 20.3013
	minimum = 7
	maximum = 47
Slowest packet = 29627
Flit latency average = 20.3016
	minimum = 7
	maximum = 47
Slowest flit = 29627
Fragmentation average = 0
	minimum = 0
	maximum = 0
Injected packet rate average = 0.0095625
	minimum = 0.0055 (at node 11)
	maximum = 0.0145 (at node 8)
Accepted packet rate average = 0.00953125
	minimum = 0.0065 (at node 1)
	maximum = 0.0135 (at node 4)
Injected flit rate average = 0.0095625
	minimum = 0.0055 (at node 11)
	maximum = 0.0145 (at node 8)
Accepted flit rate average= 0.00953125
	minimum = 0.0065 (at node 1)
	maximum = 0.0135 (at node 4)
Injected packet length average = 1
Accepted packet length average = 1
Total in-flight flits = 4 (4 measured)
latency change    = 0.00519627
throughput change = 0.0622951
Class 0:
Packet latency average = 20.0152
	minimum = 7
	maximum = 47
Network latency average = 20.0152
	minimum = 7
	maximum = 47
Slowest packet = 29627
Flit latency average = 20.0176
	minimum = 7
	maximum = 47
Slowest flit = 29627
Fragmentation average = 0
	minimum = 0
	maximum = 0
Injected packet rate average = 0.009975
	minimum = 0.006 (at node 11)
	maximum = 0.0136 (at node 8)
Accepted packet rate average = 0.009925
	minimum = 0.0068 (at node 10)
	maximum = 0.012 (at node 4)
Injected flit rate average = 0.009975
	minimum = 0.006 (at node 11)
	maximum = 0.0136 (at node 8)
Accepted flit rate average= 0.009925
	minimum = 0.0068 (at node 10)
	maximum = 0.012 (at node 4)
Injected packet length average = 1
Accepted packet length average = 1
Total in-flight flits = 5 (5 measured)
latency change    = 0.0142939
throughput change = 0.0396725
Class 0:
Packet latency average = 19.9957
	minimum = 7
	maximum = 47
Network latency average = 19.9957
	minimum = 7
	maximum = 47
Slowest packet = 29627
Flit latency average = 19.9979
	minimum = 7
	maximum = 47
Slowest flit = 29627
Fragmentation average = 0
	minimum = 0
	maximum = 0
Injected packet rate average = 0.009875
	minimum = 0.006 (at node 11)
	maximum = 0.0123333 (at node 8)
Accepted packet rate average = 0.00979167
	minimum = 0.00733333 (at node 5)
	maximum = 0.012 (at node 7)
Injected flit rate average = 0.009875
	minimum = 0.006 (at node 11)
	maximum = 0.0123333 (at node 8)
Accepted flit rate average= 0.00979167
	minimum = 0.00733333 (at node 5)
	maximum = 0.012 (at node 7)
Injected packet length average = 1
Accepted packet length average = 1
Total in-flight flits = 7 (7 measured)
latency change    = 0.000975763
throughput change = 0.013617
Class 0:
Packet latency average = 19.9491
	minimum = 7
	maximum = 47
Network latency average = 19.9491
	minimum = 7
	maximum = 47
Slowest packet = 29627
Flit latency average = 19.9512
	minimum = 7
	maximum = 47
Slowest flit = 29627
Fragmentation average = 0
	minimum = 0
	maximum = 0
Injected packet rate average = 0.00991071
	minimum = 0.00657143 (at node 11)
	maximum = 0.0117143 (at node 8)
Accepted packet rate average = 0.009875
	minimum = 0.00771429 (at node 5)
	maximum = 0.0122857 (at node 7)
Injected flit rate average = 0.00991071
	minimum = 0.00657143 (at node 11)
	maximum = 0.0117143 (at node 8)
Accepted flit rate average= 0.009875
	minimum = 0.00771429 (at node 5)
	maximum = 0.0122857 (at node 7)
Injected packet length average = 1
Accepted packet length average = 1
Total in-flight flits = 5 (5 measured)
latency change    = 0.00233727
throughput change = 0.00843882
Draining all recorded packets ...
Draining remaining packets ...
Time taken is 5037 cycles
Class 0:
Packet latency average = 19.6588
	minimum = 7
	maximum = 42
Network latency average = 19.6588
	minimum = 7
	maximum = 42
Slowest packet = 30045
Flit latency average = 19.6588
	minimum = 7
	maximum = 42
Slowest flit = 30045
Fragmentation average = 0
	minimum = 0
	maximum = 0
Injected packet rate average = 0.01075
	minimum = 0.002 (at node 4)
	maximum = 0.02 (at node 2)
Accepted packet rate average = 0.010625
	minimum = 0.004 (at node 11)
	maximum = 0.016 (at node 2)
Injected flit rate average = 0.01075
	minimum = 0.002 (at node 4)
	maximum = 0.02 (at node 2)
Accepted flit rate average= 0.010625
	minimum = 0.004 (at node 11)
	maximum = 0.016 (at node 2)
Injected packet length average = 1
Accepted packet length average = 1
Total in-flight flits = 1 (0 measured)
latency change    = 1
throughput change = 1
Class 0:
Packet latency average = 20.2547
	minimum = 7
	maximum = 48
Network latency average = 20.2547
	minimum = 7
	maximum = 48
Slowest packet = 30149
Flit latency average = 20.2547
	minimum = 7
	maximum = 48
Slowest flit = 30149
Fragmentation average = 0
	minimum = 0
	maximum = 0
Injected packet rate average = 0.0103125
	minimum = 0.007 (at node 1)
	maximum = 0.015 (at node 3)
Accepted packet rate average = 0.0100625
	minimum = 0.005 (at node 3)
	maximum = 0.016 (at node 8)
Injected flit rate average = 0.0103125
	minimum = 0.007 (at node 1)
	maximum = 0.015 (at node 3)
Accepted flit rate average= 0.0100625
	minimum = 0.005 (at node 3)
	maximum = 0.016 (at node 8)
Injected packet length average = 1
Accepted packet length average = 1
Total in-flight flits = 4 (0 measured)
latency change    = 0.0294172
throughput change = 0.0559006
Class 0:
Packet latency average = 20.2075
	minimum = 7
	maximum = 37
Network latency average = 20.2075
	minimum = 7
	maximum = 37
Slowest packet = 30232
Flit latency average = 20.2075
	minimum = 7
	maximum = 37
Slowest flit = 30232
Fragmentation average = 0
	minimum = 0
	maximum = 0
Injected packet rate average = 0.006625
	minimum = 0 (at node 3)
	maximum = 0.014 (at node 6)
Accepted packet rate average = 0.006625
	minimum = 0 (at node 2)
	maximum = 0.018 (at node 13)
Injected flit rate average = 0.006625
	minimum = 0 (at node 3)
	maximum = 0.014 (at node 6)
Accepted flit rate average= 0.006625
	minimum = 0 (at node 2)
	maximum = 0.018 (at node 13)
Injected packet length average = 1
Accepted packet length average = 1
Total in-flight flits = 4 (0 measured)
latency change    = 0.00233137
throughput change = 0.518868
Warmed up ...Time used is 1500 cycles
Class 0:
Packet latency average = 21.7568
	minimum = 7
	maximum = 42
Network latency average = 21.7568
	minimum = 7
	maximum = 42
Slowest packet = 30291
Flit latency average = 21.8333
	minimum = 7
	maximum = 42
Slowest flit = 30291
Fragmentation average = 0
	minimum = 0
	maximum = 0
Injected packet rate average = 0.009875
	minimum = 0.002 (at node 3)
	maximum = 0.014 (at node 4)
Accepted packet rate average = 0.00975
	minimum = 0.002 (at node 5)
	maximum = 0.016 (at node 4)
Injected flit rate average = 0.009875
	minimum = 0.002 (at node 3)
	maximum = 0.014 (at node 4)
Accepted flit rate average= 0.00975
	minimum = 0.002 (at node 5)
	maximum = 0.016 (at node 4)
Injected packet length average = 1
Accepted packet length average = 1
Total in-flight flits = 5 (5 measured)
latency change    = 0.0712059
throughput change = 0.320513
Class 0:
Packet latency average = 21.6115
	minimum = 7
	maximum = 50
Network latency average = 21.6115
	minimum = 7
	maximum = 50
Slowest packet = 30405
Flit latency average = 21.6522
	minimum = 7
	maximum = 50
Slowest flit = 30405
Fragmentation average = 0
	minimum = 0
	maximum = 0
Injected packet rate average = 0.0100625
	minimum = 0.006 (at node 14)
	maximum = 0.016 (at node 9)
Accepted packet rate average = 0.0100625
	minimum = 0.007 (at node 5)
	maximum = 0.014 (at node 12)
Injected flit rate average = 0.0100625
	minimum = 0.006 (at node 14)
	maximum = 0.016 (at node 9)
Accepted flit rate average= 0.0100625
	minimum = 0.007 (at node 5)
	maximum = 0.014 (at node 12)
Injected packet length average = 1
Accepted packet length average = 1
Total in-flight flits = 4 (4 measured)
latency change    = 0.0067229
throughput change = 0.0310559
Class 0:
Packet latency average = 21.2305
	minimum = 7
	maximum = 50
Network latency average = 21.2305
	minimum = 7
	maximum = 50
Slowest packet = 30405
Flit latency average = 21.2632
	minimum = 7
	maximum = 50
Slowest flit = 30405
Fragmentation average = 0
	minimum = 0
	maximum = 0
Injected packet rate average = 0.0103333
	minimum = 0.00733333 (at node 1)
	maximum = 0.0166667 (at node 13)
Accepted packet rate average = 0.0102917
	minimum = 0.00666667 (at node 5)
	maximum = 0.0126667 (at node 10)
Injected flit rate average = 0.0103333
	minimum = 0.00733333 (at node 1)
	maximum = 0.0166667 (at node 13)
Accepted flit rate average= 0.0102917
	minimum = 0.00666667 (at node 5)
	maximum = 0.0126667 (at node 10)
Injected packet length average = 1
Accepted packet length average = 1
Total in-flight flits = 5 (5 measured)
latency change    = 0.0179465
throughput change = 0.0222672
Class 0:
Packet latency average = 21.0813
	minimum = 7
	maximum = 51
Network latency average = 21.0813
	minimum = 7
	maximum = 51
Slowest packet = 30506
Flit latency average = 21.108
	minimum = 7
	maximum = 51
Slowest flit = 30506
Fragmentation average = 0
	minimum = 0
	maximum = 0
Injected packet rate average = 0.0100313
	minimum = 0.0065 (at node 3)
	maximum = 0.015 (at node 13)
Accepted packet rate average = 0.010125
	minimum = 0.0075 (at node 0)
	maximum = 0.013 (at node 12)
Injected flit rate average = 0.0100313
	minimum = 0.0065 (at node 3)
	maximum = 0.015 (at node 13)
Accepted flit rate average= 0.010125
	minimum = 0.0075 (at node 0)
	maximum = 0.013 (at node 12)
Injected packet length average = 1
Accepted packet length average = 1
Total in-flight flits = 1 (1 measured)
latency change    = 0.00707751
throughput change = 0.0164609
Draining all recorded packets ...
Draining remaining packets ...
Time taken is 3528 cycles
====== Overall Traffic Statistics ======
====== Traffic class 0 ======
Packet latency average = 20.4116 (50 samples)
	minimum = 7 (50 samples)
	maximum = 47.56 (50 samples)
Network latency average = 20.4116 (50 samples)
	minimum = 7 (50 samples)
	maximum = 47.56 (50 samples)
Flit latency average = 20.4434 (50 samples)
	minimum = 7 (50 samples)
	maximum = 47.56 (50 samples)
Fragmentation average = 0 (50 samples)
	minimum = 0 (50 samples)
	maximum = 0 (50 samples)
Injected packet rate average = 0.00997558 (50 samples)
	minimum = 0.00647571 (50 samples)
	maximum = 0.0136827 (50 samples)
Accepted packet rate average = 0.00996277 (50 samples)
	minimum = 0.00625429 (50 samples)
	maximum = 0.0139554 (50 samples)
Injected flit rate average = 0.00997558 (50 samples)
	minimum = 0.00647571 (50 samples)
	maximum = 0.0136827 (50 samples)
Accepted flit rate average = 0.00996277 (50 samples)
	minimum = 0.00625429 (50 samples)
	maximum = 0.0139554 (50 samples)
Injected packet size average = 1 (50 samples)
Accepted packet size average = 1 (50 samples)
Hops average = 3.66142 (50 samples)
Total run time 3.0275
