BEGIN Configuration File: /tmp/tmpqzidtthm.cfg
topology = mesh;
k = 4;
n = 2;
routing_function = planar_adapt;
num_vcs = 4;
vc_buf_size = 4;
wait_for_tail_credit = 1;
vc_allocator = islip;
sw_allocator = islip;
alloc_iters = 1;
credit_delay = 2;
routing_delay = 1;
vc_alloc_delay = 1;
sw_alloc_delay = 1;
input_speedup = 2;
output_speedup = 1;
internal_speedup = 1.0;
traffic = uniform;
packet_size = 1;
sim_type = latency;
injection_rate = 0.1;
warmup_periods = 3;
sample_period = 500;
sim_count = 50;
seed = 2;
link_failures = 1;
fail_seed = 101;

END Configuration File: /tmp/tmpqzidtthm.cfg
failure at node 14, channel 0 (1/1)
Class 0:
Packet latency average = 21.7781
	minimum = 7
	maximum = 72
Network latency average = 21.7739
	minimum = 7
	maximum = 72
Slowest packet = 179
Flit latency average = 21.7739
	minimum = 7
	maximum = 72
Slowest flit = 179
Fragmentation average = 0
	minimum = 0
	maximum = 0
Injected packet rate average = 0.094375
	minimum = 0.074 (at node 1)
	maximum = 0.118 (at node 7)
Accepted packet rate average = 0.090125
	minimum = 0.072 (at node 0)
	maximum = 0.112 (at node 10)
Injected flit rate average = 0.094375
	minimum = 0.074 (at node 1)
	maximum = 0.118 (at node 7)
Accepted flit rate average= 0.090125
	minimum = 0.072 (at node 0)
	maximum = 0.112 (at node 10)
Injected packet length average = 1
Accepted packet length average = 1
Total in-flight flits = 34 (0 measured)
latency change    = 1
throughput change = 1
Class 0:
Packet latency average = 21.833
	minimum = 7
	maximum = 89
Network latency average = 21.8173
	minimum = 7
	maximum = 89
Slowest packet = 1005
Flit latency average = 21.8173
	minimum = 7
	maximum = 89
Slowest flit = 1005
Fragmentation average = 0
	minimum = 0
	maximum = 0
Injected packet rate average = 0.0978125
	minimum = 0.081 (at node 9)
	maximum = 0.116 (at node 6)
Accepted packet rate average = 0.0954375
	minimum = 0.079 (at node 4)
	maximum = 0.113 (at node 1)
Injected flit rate average = 0.0978125
	minimum = 0.081 (at node 9)
	maximum = 0.116 (at node 6)
Accepted flit rate average= 0.0954375
	minimum = 0.079 (at node 4)
	maximum = 0.113 (at node 1)
Injected packet length average = 1
Accepted packet length average = 1
Total in-flight flits = 38 (0 measured)
latency change    = 0.00251545
throughput change = 0.0556647
Class 0:
Packet latency average = 25.0144
	minimum = 7
	maximum = 143
Network latency average = 24.5686
	minimum = 7
	maximum = 119
Slowest packet = 1551
Flit latency average = 24.5686
	minimum = 7
	maximum = 119
Slowest flit = 1551
Fragmentation average = 0
	minimum = 0
	maximum = 0
Injected packet rate average = 0.094625
	minimum = 0.064 (at node 1)
	maximum = 0.114 (at node 3)
Accepted packet rate average = 0.095625
	minimum = 0.074 (at node 12)
	maximum = 0.118 (at node 15)
Injected flit rate average = 0.094625
	minimum = 0.064 (at node 1)
	maximum = 0.114 (at node 3)
Accepted flit rate average= 0.095625
	minimum = 0.074 (at node 12)
	maximum = 0.118 (at node 15)
Injected packet length average = 1
Accepted packet length average = 1
Total in-flight flits = 30 (0 measured)
latency change    = 0.127182
throughput change = 0.00196078
Warmed up ...Time used is 1500 cycles
Class 0:
Packet latency average = 28.9286
	minimum = 7
	maximum = 266
Network latency average = 27.0727
	minimum = 7
	maximum = 247
Slowest packet = 2492
Flit latency average = 27.5986
	minimum = 7
	maximum = 247
Slowest flit = 2603
Fragmentation average = 0
	minimum = 0
	maximum = 0
Injected packet rate average = 0.106625
	minimum = 0.068 (at node 12)
	maximum = 0.132 (at node 0)
Accepted packet rate average = 0.10525
	minimum = 0.074 (at node 9)
	maximum = 0.126 (at node 15)
Injected flit rate average = 0.106625
	minimum = 0.068 (at node 12)
	maximum = 0.132 (at node 0)
Accepted flit rate average= 0.10525
	minimum = 0.074 (at node 9)
	maximum = 0.126 (at node 15)
Injected packet length average = 1
Accepted packet length average = 1
Total in-flight flits = 42 (42 measured)
latency change    = 0.135305
throughput change = 0.0914489
Class 0:
Packet latency average = 33.2704
	minimum = 7
	maximum = 392
Network latency average = 27.1435
	minimum = 7
	maximum = 247
Slowest packet = 2492
Flit latency average = 27.4193
	minimum = 7
	maximum = 247
Slowest flit = 2603
Fragmentation average = 0
	minimum = 0
	maximum = 0
Injected packet rate average = 0.101562
	minimum = 0.078 (at node 12)
	maximum = 0.117 (at node 0)
Accepted packet rate average = 0.099875
	minimum = 0.074 (at node 9)
	maximum = 0.117 (at node 0)
Injected flit rate average = 0.101562
	minimum = 0.078 (at node 12)
	maximum = 0.117 (at node 0)
Accepted flit rate average= 0.099875
	minimum = 0.074 (at node 9)
	maximum = 0.117 (at node 0)
Injected packet length average = 1
Accepted packet length average = 1
Total in-flight flits = 59 (59 measured)
latency change    = 0.130501
throughput change = 0.0538173
Class 0:
Packet latency average = 38.2752
	minimum = 7
	maximum = 540
Network latency average = 27.4383
	minimum = 7
	maximum = 315
Slowest packet = 2492
Flit latency average = 27.618
	minimum = 7
	maximum = 315
Slowest flit = 3655
Fragmentation average = 0
	minimum = 0
	maximum = 0
Injected packet rate average = 0.100667
	minimum = 0.08 (at node 12)
	maximum = 0.112 (at node 10)
Accepted packet rate average = 0.100125
	minimum = 0.0886667 (at node 9)
	maximum = 0.123333 (at node 0)
Injected flit rate average = 0.100667
	minimum = 0.08 (at node 12)
	maximum = 0.112 (at node 10)
Accepted flit rate average= 0.100125
	minimum = 0.0886667 (at node 9)
	maximum = 0.123333 (at node 0)
Injected packet length average = 1
Accepted packet length average = 1
Total in-flight flits = 44 (44 measured)
latency change    = 0.130758
throughput change = 0.00249688
Class 0:
Packet latency average = 37.6189
	minimum = 7
	maximum = 540
Network latency average = 27.7144
	minimum = 7
	maximum = 315
Slowest packet = 2492
Flit latency average = 27.8475
	minimum = 7
	maximum = 315
Slowest flit = 3655
Fragmentation average = 0
	minimum = 0
	maximum = 0
Injected packet rate average = 0.099875
	minimum = 0.0705 (at node 12)
	maximum = 0.1095 (at node 10)
Accepted packet rate average = 0.0994063
	minimum = 0.0885 (at node 14)
	maximum = 0.1195 (at node 0)
Injected flit rate average = 0.099875
	minimum = 0.0705 (at node 12)
	maximum = 0.1095 (at node 10)
Accepted flit rate average= 0.0994063
	minimum = 0.0885 (at node 14)
	maximum = 0.1195 (at node 0)
Injected packet length average = 1
Accepted packet length average = 1
Total in-flight flits = 46 (46 measured)
latency change    = 0.0174468
throughput change = 0.00723043
Class 0:
Packet latency average = 42.7365
	minimum = 7
	maximum = 753
Network latency average = 27.716
	minimum = 7
	maximum = 320
Slowest packet = 2492
Flit latency average = 27.8211
	minimum = 7
	maximum = 320
Slowest flit = 5273
Fragmentation average = 0
	minimum = 0
	maximum = 0
Injected packet rate average = 0.101225
	minimum = 0.0768 (at node 12)
	maximum = 0.1084 (at node 10)
Accepted packet rate average = 0.10075
	minimum = 0.0876 (at node 14)
	maximum = 0.1176 (at node 0)
Injected flit rate average = 0.101225
	minimum = 0.0768 (at node 12)
	maximum = 0.1084 (at node 10)
Accepted flit rate average= 0.10075
	minimum = 0.0876 (at node 14)
	maximum = 0.1176 (at node 0)
Injected packet length average = 1
Accepted packet length average = 1
Total in-flight flits = 50 (50 measured)
latency change    = 0.119749
throughput change = 0.0133375
Class 0:
Packet latency average = 44.7029
	minimum = 7
	maximum = 759
Network latency average = 27.964
	minimum = 7
	maximum = 320
Slowest packet = 2492
Flit latency average = 28.0496
	minimum = 7
	maximum = 320
Slowest flit = 5273
Fragmentation average = 0
	minimum = 0
	maximum = 0
Injected packet rate average = 0.101708
	minimum = 0.0763333 (at node 12)
	maximum = 0.107 (at node 5)
Accepted packet rate average = 0.101312
	minimum = 0.0943333 (at node 14)
	maximum = 0.112667 (at node 0)
Injected flit rate average = 0.101708
	minimum = 0.0763333 (at node 12)
	maximum = 0.107 (at node 5)
Accepted flit rate average= 0.101312
	minimum = 0.0943333 (at node 14)
	maximum = 0.112667 (at node 0)
Injected packet length average = 1
Accepted packet length average = 1
Total in-flight flits = 50 (50 measured)
latency change    = 0.0439877
throughput change = 0.00555213
Class 0:
Packet latency average = 46.8827
	minimum = 7
	maximum = 759
Network latency average = 28.1776
	minimum = 7
	maximum = 320
Slowest packet = 2492
Flit latency average = 28.2496
	minimum = 7
	maximum = 320
Slowest flit = 5273
Fragmentation average = 0
	minimum = 0
	maximum = 0
Injected packet rate average = 0.101893
	minimum = 0.0777143 (at node 12)
	maximum = 0.109143 (at node 5)
Accepted packet rate average = 0.101589
	minimum = 0.0942857 (at node 9)
	maximum = 0.113143 (at node 0)
Injected flit rate average = 0.101893
	minimum = 0.0777143 (at node 12)
	maximum = 0.109143 (at node 5)
Accepted flit rate average= 0.101589
	minimum = 0.0942857 (at node 9)
	maximum = 0.113143 (at node 0)
Injected packet length average = 1
Accepted packet length average = 1
Total in-flight flits = 49 (49 measured)
latency change    = 0.0464946
throughput change = 0.00272456
Draining all recorded packets ...
Draining remaining packets ...
Time taken is 5543 cycles
Class 0:
Packet latency average = 23.9709
	minimum = 7
	maximum = 117
Network latency average = 23.6907
	minimum = 7
	maximum = 117
Slowest packet = 8971
Flit latency average = 23.6907
	minimum = 7
	maximum = 117
Slowest flit = 8971
Fragmentation average = 0
	minimum = 0
	maximum = 0
Injected packet rate average = 0.09625
	minimum = 0.074 (at node 12)
	maximum = 0.126 (at node 13)
Accepted packet rate average = 0.090125
	minimum = 0.068 (at node 10)
	maximum = 0.114 (at node 4)
Injected flit rate average = 0.09625
	minimum = 0.074 (at node 12)
	maximum = 0.126 (at node 13)
Accepted flit rate average= 0.090125
	minimum = 0.068 (at node 10)
	maximum = 0.114 (at node 4)
Injected packet length average = 1
Accepted packet length average = 1
Total in-flight flits = 50 (0 measured)
latency change    = 1
throughput change = 1
Class 0:
Packet latency average = 25.1372
	minimum = 7
	maximum = 162
Network latency average = 24.7949
	minimum = 7
	maximum = 142
Slowest packet = 9560
Flit latency average = 24.7949
	minimum = 7
	maximum = 142
Slowest flit = 9560
Fragmentation average = 0
	minimum = 0
	maximum = 0
Injected packet rate average = 0.09725
	minimum = 0.072 (at node 12)
	maximum = 0.109 (at node 13)
Accepted packet rate average = 0.09475
	minimum = 0.071 (at node 0)
	maximum = 0.116 (at node 4)
Injected flit rate average = 0.09725
	minimum = 0.072 (at node 12)
	maximum = 0.109 (at node 13)
Accepted flit rate average= 0.09475
	minimum = 0.071 (at node 0)
	maximum = 0.116 (at node 4)
Injected packet length average = 1
Accepted packet length average = 1
Total in-flight flits = 40 (0 measured)
latency change    = 0.0463985
throughput change = 0.0488127
Class 0:
Packet latency average = 22.3504
	minimum = 7
	maximum = 82
Network latency average = 22.3492
	minimum = 7
	maximum = 82
Slowest packet = 10947
Flit latency average = 22.3492
	minimum = 7
	maximum = 82
Slowest flit = 10947
Fragmentation average = 0
	minimum = 0
	maximum = 0
Injected packet rate average = 0.096375
	minimum = 0.076 (at node 4)
	maximum = 0.122 (at node 0)
Accepted packet rate average = 0.097375
	minimum = 0.082 (at node 7)
	maximum = 0.128 (at node 2)
Injected flit rate average = 0.096375
	minimum = 0.076 (at node 4)
	maximum = 0.122 (at node 0)
Accepted flit rate average= 0.097375
	minimum = 0.082 (at node 7)
	maximum = 0.128 (at node 2)
Injected packet length average = 1
Accepted packet length average = 1
Total in-flight flits = 32 (0 measured)
latency change    = 0.124684
throughput change = 0.0269576
Warmed up ...Time used is 1500 cycles
Class 0:
Packet latency average = 25.2111
	minimum = 7
	maximum = 134
Network latency average = 24.3097
	minimum = 7
	maximum = 134
Slowest packet = 11412
Flit latency average = 24.4617
	minimum = 7
	maximum = 134
Slowest flit = 11412
Fragmentation average = 0
	minimum = 0
	maximum = 0
Injected packet rate average = 0.10425
	minimum = 0.074 (at node 14)
	maximum = 0.126 (at node 7)
Accepted packet rate average = 0.102875
	minimum = 0.076 (at node 4)
	maximum = 0.116 (at node 3)
Injected flit rate average = 0.10425
	minimum = 0.074 (at node 14)
	maximum = 0.126 (at node 7)
Accepted flit rate average= 0.102875
	minimum = 0.076 (at node 4)
	maximum = 0.116 (at node 3)
Injected packet length average = 1
Accepted packet length average = 1
Total in-flight flits = 44 (44 measured)
latency change    = 0.113469
throughput change = 0.0534629
Class 0:
Packet latency average = 29.0468
	minimum = 7
	maximum = 279
Network latency average = 26.445
	minimum = 7
	maximum = 233
Slowest packet = 11835
Flit latency average = 26.4802
	minimum = 7
	maximum = 233
Slowest flit = 11835
Fragmentation average = 0
	minimum = 0
	maximum = 0
Injected packet rate average = 0.101875
	minimum = 0.082 (at node 4)
	maximum = 0.122 (at node 7)
Accepted packet rate average = 0.100875
	minimum = 0.086 (at node 1)
	maximum = 0.118 (at node 15)
Injected flit rate average = 0.101875
	minimum = 0.082 (at node 4)
	maximum = 0.122 (at node 7)
Accepted flit rate average= 0.100875
	minimum = 0.086 (at node 1)
	maximum = 0.118 (at node 15)
Injected packet length average = 1
Accepted packet length average = 1
Total in-flight flits = 49 (49 measured)
latency change    = 0.132051
throughput change = 0.0198265
Class 0:
Packet latency average = 28.5626
	minimum = 7
	maximum = 279
Network latency average = 26.2756
	minimum = 7
	maximum = 233
Slowest packet = 11835
Flit latency average = 26.3014
	minimum = 7
	maximum = 233
Slowest flit = 11835
Fragmentation average = 0
	minimum = 0
	maximum = 0
Injected packet rate average = 0.101208
	minimum = 0.082 (at node 14)
	maximum = 0.118 (at node 8)
Accepted packet rate average = 0.1005
	minimum = 0.0873333 (at node 9)
	maximum = 0.109333 (at node 0)
Injected flit rate average = 0.101208
	minimum = 0.082 (at node 14)
	maximum = 0.118 (at node 8)
Accepted flit rate average= 0.1005
	minimum = 0.0873333 (at node 9)
	maximum = 0.109333 (at node 0)
Injected packet length average = 1
Accepted packet length average = 1
Total in-flight flits = 49 (49 measured)
latency change    = 0.0169512
throughput change = 0.00373134
Class 0:
Packet latency average = 27.1968
	minimum = 7
	maximum = 279
Network latency average = 25.4364
	minimum = 7
	maximum = 233
Slowest packet = 11835
Flit latency average = 25.4643
	minimum = 7
	maximum = 233
Slowest flit = 11835
Fragmentation average = 0
	minimum = 0
	maximum = 0
Injected packet rate average = 0.0996563
	minimum = 0.084 (at node 14)
	maximum = 0.112 (at node 8)
Accepted packet rate average = 0.0994687
	minimum = 0.089 (at node 9)
	maximum = 0.1085 (at node 11)
Injected flit rate average = 0.0996563
	minimum = 0.084 (at node 14)
	maximum = 0.112 (at node 8)
Accepted flit rate average= 0.0994687
	minimum = 0.089 (at node 9)
	maximum = 0.1085 (at node 11)
Injected packet length average = 1
Accepted packet length average = 1
Total in-flight flits = 38 (38 measured)
latency change    = 0.0502208
throughput change = 0.0103676
Class 0:
Packet latency average = 26.688
	minimum = 7
	maximum = 279
Network latency average = 25.2794
	minimum = 7
	maximum = 233
Slowest packet = 11835
Flit latency average = 25.303
	minimum = 7
	maximum = 233
Slowest flit = 11835
Fragmentation average = 0
	minimum = 0
	maximum = 0
Injected packet rate average = 0.099975
	minimum = 0.0884 (at node 14)
	maximum = 0.1132 (at node 7)
Accepted packet rate average = 0.0996
	minimum = 0.0896 (at node 9)
	maximum = 0.11 (at node 8)
Injected flit rate average = 0.099975
	minimum = 0.0884 (at node 14)
	maximum = 0.1132 (at node 7)
Accepted flit rate average= 0.0996
	minimum = 0.0896 (at node 9)
	maximum = 0.11 (at node 8)
Injected packet length average = 1
Accepted packet length average = 1
Total in-flight flits = 50 (50 measured)
latency change    = 0.0190631
throughput change = 0.00131777
Class 0:
Packet latency average = 28.6512
	minimum = 7
	maximum = 391
Network latency average = 25.9763
	minimum = 7
	maximum = 286
Slowest packet = 11835
Flit latency average = 25.9914
	minimum = 7
	maximum = 286
Slowest flit = 15213
Fragmentation average = 0
	minimum = 0
	maximum = 0
Injected packet rate average = 0.0994583
	minimum = 0.0873333 (at node 12)
	maximum = 0.109667 (at node 2)
Accepted packet rate average = 0.0992917
	minimum = 0.0883333 (at node 9)
	maximum = 0.109333 (at node 8)
Injected flit rate average = 0.0994583
	minimum = 0.0873333 (at node 12)
	maximum = 0.109667 (at node 2)
Accepted flit rate average= 0.0992917
	minimum = 0.0883333 (at node 9)
	maximum = 0.109333 (at node 8)
Injected packet length average = 1
Accepted packet length average = 1
Total in-flight flits = 42 (42 measured)
latency change    = 0.068522
throughput change = 0.00310533
Class 0:
Packet latency average = 31.5082
	minimum = 7
	maximum = 486
Network latency average = 26.2438
	minimum = 7
	maximum = 286
Slowest packet = 11835
Flit latency average = 26.2551
	minimum = 7
	maximum = 286
Slowest flit = 15213
Fragmentation average = 0
	minimum = 0
	maximum = 0
Injected packet rate average = 0.100125
	minimum = 0.0885714 (at node 14)
	maximum = 0.108857 (at node 13)
Accepted packet rate average = 0.0998036
	minimum = 0.0868571 (at node 9)
	maximum = 0.109429 (at node 8)
Injected flit rate average = 0.100125
	minimum = 0.0885714 (at node 14)
	maximum = 0.108857 (at node 13)
Accepted flit rate average= 0.0998036
	minimum = 0.0868571 (at node 9)
	maximum = 0.109429 (at node 8)
Injected packet length average = 1
Accepted packet length average = 1
Total in-flight flits = 51 (51 measured)
latency change    = 0.090673
throughput change = 0.00512912
Draining all recorded packets ...
Draining remaining packets ...
Time taken is 5481 cycles
Class 0:
Packet latency average = 23.4597
	minimum = 7
	maximum = 96
Network latency average = 23.4521
	minimum = 7
	maximum = 96
Slowest packet = 17898
Flit latency average = 23.4521
	minimum = 7
	maximum = 96
Slowest flit = 17898
Fragmentation average = 0
	minimum = 0
	maximum = 0
Injected packet rate average = 0.1035
	minimum = 0.076 (at node 6)
	maximum = 0.13 (at node 7)
Accepted packet rate average = 0.09925
	minimum = 0.076 (at node 7)
	maximum = 0.116 (at node 4)
Injected flit rate average = 0.1035
	minimum = 0.076 (at node 6)
	maximum = 0.13 (at node 7)
Accepted flit rate average= 0.09925
	minimum = 0.076 (at node 7)
	maximum = 0.116 (at node 4)
Injected packet length average = 1
Accepted packet length average = 1
Total in-flight flits = 34 (0 measured)
latency change    = 1
throughput change = 1
Class 0:
Packet latency average = 24.1487
	minimum = 7
	maximum = 131
Network latency average = 24.11
	minimum = 7
	maximum = 131
Slowest packet = 18812
Flit latency average = 24.11
	minimum = 7
	maximum = 131
Slowest flit = 18812
Fragmentation average = 0
	minimum = 0
	maximum = 0
Injected packet rate average = 0.103125
	minimum = 0.092 (at node 10)
	maximum = 0.125 (at node 7)
Accepted packet rate average = 0.1
	minimum = 0.085 (at node 5)
	maximum = 0.118 (at node 0)
Injected flit rate average = 0.103125
	minimum = 0.092 (at node 10)
	maximum = 0.125 (at node 7)
Accepted flit rate average= 0.1
	minimum = 0.085 (at node 5)
	maximum = 0.118 (at node 0)
Injected packet length average = 1
Accepted packet length average = 1
Total in-flight flits = 51 (0 measured)
latency change    = 0.0285337
throughput change = 0.0075
Class 0:
Packet latency average = 30.075
	minimum = 7
	maximum = 315
Network latency average = 28.8412
	minimum = 7
	maximum = 284
Slowest packet = 19351
Flit latency average = 28.8412
	minimum = 7
	maximum = 284
Slowest flit = 19351
Fragmentation average = 0
	minimum = 0
	maximum = 0
Injected packet rate average = 0.097625
	minimum = 0.062 (at node 12)
	maximum = 0.126 (at node 7)
Accepted packet rate average = 0.098375
	minimum = 0.066 (at node 2)
	maximum = 0.132 (at node 7)
Injected flit rate average = 0.097625
	minimum = 0.062 (at node 12)
	maximum = 0.126 (at node 7)
Accepted flit rate average= 0.098375
	minimum = 0.066 (at node 2)
	maximum = 0.132 (at node 7)
Injected packet length average = 1
Accepted packet length average = 1
Total in-flight flits = 46 (0 measured)
latency change    = 0.197048
throughput change = 0.0165184
Warmed up ...Time used is 1500 cycles
Class 0:
Packet latency average = 42.0996
	minimum = 7
	maximum = 476
Network latency average = 25.5143
	minimum = 7
	maximum = 202
Slowest packet = 19960
Flit latency average = 28.4416
	minimum = 7
	maximum = 359
Slowest flit = 19495
Fragmentation average = 0
	minimum = 0
	maximum = 0
Injected packet rate average = 0.096
	minimum = 0.076 (at node 1)
	maximum = 0.122 (at node 5)
Accepted packet rate average = 0.097375
	minimum = 0.076 (at node 1)
	maximum = 0.12 (at node 13)
Injected flit rate average = 0.096
	minimum = 0.076 (at node 1)
	maximum = 0.122 (at node 5)
Accepted flit rate average= 0.097375
	minimum = 0.076 (at node 1)
	maximum = 0.12 (at node 13)
Injected packet length average = 1
Accepted packet length average = 1
Total in-flight flits = 34 (34 measured)
latency change    = 0.285623
throughput change = 0.0102696
Class 0:
Packet latency average = 41.8611
	minimum = 7
	maximum = 476
Network latency average = 27.3505
	minimum = 7
	maximum = 202
Slowest packet = 19960
Flit latency average = 28.7102
	minimum = 7
	maximum = 359
Slowest flit = 19495
Fragmentation average = 0
	minimum = 0
	maximum = 0
Injected packet rate average = 0.100187
	minimum = 0.08 (at node 1)
	maximum = 0.117 (at node 13)
Accepted packet rate average = 0.100937
	minimum = 0.075 (at node 2)
	maximum = 0.123 (at node 14)
Injected flit rate average = 0.100187
	minimum = 0.08 (at node 1)
	maximum = 0.117 (at node 13)
Accepted flit rate average= 0.100937
	minimum = 0.075 (at node 2)
	maximum = 0.123 (at node 14)
Injected packet length average = 1
Accepted packet length average = 1
Total in-flight flits = 32 (32 measured)
latency change    = 0.0056982
throughput change = 0.0352941
Class 0:
Packet latency average = 36.0535
	minimum = 7
	maximum = 476
Network latency average = 26.2989
	minimum = 7
	maximum = 202
Slowest packet = 19960
Flit latency average = 27.2415
	minimum = 7
	maximum = 359
Slowest flit = 19495
Fragmentation average = 0
	minimum = 0
	maximum = 0
Injected packet rate average = 0.099375
	minimum = 0.082 (at node 10)
	maximum = 0.114 (at node 6)
Accepted packet rate average = 0.0992083
	minimum = 0.084 (at node 2)
	maximum = 0.115333 (at node 13)
Injected flit rate average = 0.099375
	minimum = 0.082 (at node 10)
	maximum = 0.114 (at node 6)
Accepted flit rate average= 0.0992083
	minimum = 0.084 (at node 2)
	maximum = 0.115333 (at node 13)
Injected packet length average = 1
Accepted packet length average = 1
Total in-flight flits = 48 (48 measured)
latency change    = 0.161081
throughput change = 0.0174297
Class 0:
Packet latency average = 33.9965
	minimum = 7
	maximum = 476
Network latency average = 26.436
	minimum = 7
	maximum = 204
Slowest packet = 19960
Flit latency average = 27.1435
	minimum = 7
	maximum = 359
Slowest flit = 19495
Fragmentation average = 0
	minimum = 0
	maximum = 0
Injected packet rate average = 0.0985625
	minimum = 0.084 (at node 1)
	maximum = 0.109 (at node 8)
Accepted packet rate average = 0.0988437
	minimum = 0.0825 (at node 9)
	maximum = 0.1125 (at node 13)
Injected flit rate average = 0.0985625
	minimum = 0.084 (at node 1)
	maximum = 0.109 (at node 8)
Accepted flit rate average= 0.0988437
	minimum = 0.0825 (at node 9)
	maximum = 0.1125 (at node 13)
Injected packet length average = 1
Accepted packet length average = 1
Total in-flight flits = 36 (36 measured)
latency change    = 0.0605081
throughput change = 0.00368848
Class 0:
Packet latency average = 34.1919
	minimum = 7
	maximum = 476
Network latency average = 26.6454
	minimum = 7
	maximum = 244
Slowest packet = 19960
Flit latency average = 27.2113
	minimum = 7
	maximum = 359
Slowest flit = 19495
Fragmentation average = 0
	minimum = 0
	maximum = 0
Injected packet rate average = 0.0982
	minimum = 0.0872 (at node 1)
	maximum = 0.1084 (at node 8)
Accepted packet rate average = 0.09845
	minimum = 0.088 (at node 1)
	maximum = 0.1068 (at node 13)
Injected flit rate average = 0.0982
	minimum = 0.0872 (at node 1)
	maximum = 0.1084 (at node 8)
Accepted flit rate average= 0.09845
	minimum = 0.088 (at node 1)
	maximum = 0.1068 (at node 13)
Injected packet length average = 1
Accepted packet length average = 1
Total in-flight flits = 34 (34 measured)
latency change    = 0.00571659
throughput change = 0.00399949
Class 0:
Packet latency average = 32.409
	minimum = 7
	maximum = 476
Network latency average = 26.1859
	minimum = 7
	maximum = 244
Slowest packet = 19960
Flit latency average = 26.6574
	minimum = 7
	maximum = 359
Slowest flit = 19495
Fragmentation average = 0
	minimum = 0
	maximum = 0
Injected packet rate average = 0.0993958
	minimum = 0.0876667 (at node 9)
	maximum = 0.109 (at node 8)
Accepted packet rate average = 0.099375
	minimum = 0.0926667 (at node 1)
	maximum = 0.107333 (at node 13)
Injected flit rate average = 0.0993958
	minimum = 0.0876667 (at node 9)
	maximum = 0.109 (at node 8)
Accepted flit rate average= 0.099375
	minimum = 0.0926667 (at node 1)
	maximum = 0.107333 (at node 13)
Injected packet length average = 1
Accepted packet length average = 1
Total in-flight flits = 45 (45 measured)
latency change    = 0.0550143
throughput change = 0.00930818
Class 0:
Packet latency average = 31.1723
	minimum = 7
	maximum = 476
Network latency average = 25.8502
	minimum = 7
	maximum = 244
Slowest packet = 19960
Flit latency average = 26.2547
	minimum = 7
	maximum = 359
Slowest flit = 19495
Fragmentation average = 0
	minimum = 0
	maximum = 0
Injected packet rate average = 0.100071
	minimum = 0.0882857 (at node 9)
	maximum = 0.109714 (at node 13)
Accepted packet rate average = 0.0999821
	minimum = 0.0937143 (at node 3)
	maximum = 0.107143 (at node 13)
Injected flit rate average = 0.100071
	minimum = 0.0882857 (at node 9)
	maximum = 0.109714 (at node 13)
Accepted flit rate average= 0.0999821
	minimum = 0.0937143 (at node 3)
	maximum = 0.107143 (at node 13)
Injected packet length average = 1
Accepted packet length average = 1
Total in-flight flits = 50 (50 measured)
latency change    = 0.0396709
throughput change = 0.00607251
Draining all recorded packets ...
Draining remaining packets ...
Time taken is 5251 cycles
Class 0:
Packet latency average = 23.5806
	minimum = 7
	maximum = 89
Network latency average = 23.2831
	minimum = 7
	maximum = 89
Slowest packet = 26201
Flit latency average = 23.2831
	minimum = 7
	maximum = 89
Slowest flit = 26201
Fragmentation average = 0
	minimum = 0
	maximum = 0
Injected packet rate average = 0.099375
	minimum = 0.076 (at node 12)
	maximum = 0.12 (at node 0)
Accepted packet rate average = 0.095375
	minimum = 0.078 (at node 13)
	maximum = 0.118 (at node 12)
Injected flit rate average = 0.099375
	minimum = 0.076 (at node 12)
	maximum = 0.12 (at node 0)
Accepted flit rate average= 0.095375
	minimum = 0.078 (at node 13)
	maximum = 0.118 (at node 12)
Injected packet length average = 1
Accepted packet length average = 1
Total in-flight flits = 32 (0 measured)
latency change    = 1
throughput change = 1
Class 0:
Packet latency average = 24.1405
	minimum = 7
	maximum = 107
Network latency average = 23.9184
	minimum = 7
	maximum = 107
Slowest packet = 26769
Flit latency average = 23.9184
	minimum = 7
	maximum = 107
Slowest flit = 26769
Fragmentation average = 0
	minimum = 0
	maximum = 0
Injected packet rate average = 0.0981875
	minimum = 0.084 (at node 9)
	maximum = 0.113 (at node 0)
Accepted packet rate average = 0.0965625
	minimum = 0.078 (at node 8)
	maximum = 0.11 (at node 12)
Injected flit rate average = 0.0981875
	minimum = 0.084 (at node 9)
	maximum = 0.113 (at node 0)
Accepted flit rate average= 0.0965625
	minimum = 0.078 (at node 8)
	maximum = 0.11 (at node 12)
Injected packet length average = 1
Accepted packet length average = 1
Total in-flight flits = 26 (0 measured)
latency change    = 0.0231914
throughput change = 0.0122977
Class 0:
Packet latency average = 22.1916
	minimum = 7
	maximum = 101
Network latency average = 22.1646
	minimum = 7
	maximum = 101
Slowest packet = 27917
Flit latency average = 22.1646
	minimum = 7
	maximum = 101
Slowest flit = 27917
Fragmentation average = 0
	minimum = 0
	maximum = 0
Injected packet rate average = 0.09575
	minimum = 0.074 (at node 11)
	maximum = 0.118 (at node 5)
Accepted packet rate average = 0.092625
	minimum = 0.06 (at node 8)
	maximum = 0.118 (at node 0)
Injected flit rate average = 0.09575
	minimum = 0.074 (at node 11)
	maximum = 0.118 (at node 5)
Accepted flit rate average= 0.092625
	minimum = 0.06 (at node 8)
	maximum = 0.118 (at node 0)
Injected packet length average = 1
Accepted packet length average = 1
Total in-flight flits = 54 (0 measured)
latency change    = 0.0878178
throughput change = 0.0425101
Warmed up ...Time used is 1500 cycles
Class 0:
Packet latency average = 36.1123
	minimum = 7
	maximum = 325
Network latency average = 28.5287
	minimum = 7
	maximum = 257
Slowest packet = 28138
Flit latency average = 30.1683
	minimum = 7
	maximum = 257
Slowest flit = 28138
Fragmentation average = 0
	minimum = 0
	maximum = 0
Injected packet rate average = 0.102
	minimum = 0.056 (at node 12)
	maximum = 0.136 (at node 14)
Accepted packet rate average = 0.1025
	minimum = 0.06 (at node 2)
	maximum = 0.14 (at node 15)
Injected flit rate average = 0.102
	minimum = 0.056 (at node 12)
	maximum = 0.136 (at node 14)
Accepted flit rate average= 0.1025
	minimum = 0.06 (at node 2)
	maximum = 0.14 (at node 15)
Injected packet length average = 1
Accepted packet length average = 1
Total in-flight flits = 49 (49 measured)
latency change    = 0.385482
throughput change = 0.0963415
Class 0:
Packet latency average = 42.8945
	minimum = 7
	maximum = 419
Network latency average = 28.0397
	minimum = 7
	maximum = 257
Slowest packet = 28138
Flit latency average = 28.8631
	minimum = 7
	maximum = 257
Slowest flit = 28138
Fragmentation average = 0
	minimum = 0
	maximum = 0
Injected packet rate average = 0.10325
	minimum = 0.088 (at node 6)
	maximum = 0.122 (at node 7)
Accepted packet rate average = 0.104063
	minimum = 0.077 (at node 13)
	maximum = 0.119 (at node 6)
Injected flit rate average = 0.10325
	minimum = 0.088 (at node 6)
	maximum = 0.122 (at node 7)
Accepted flit rate average= 0.104063
	minimum = 0.077 (at node 13)
	maximum = 0.119 (at node 6)
Injected packet length average = 1
Accepted packet length average = 1
Total in-flight flits = 39 (39 measured)
latency change    = 0.158114
throughput change = 0.015015
Class 0:
Packet latency average = 41.8117
	minimum = 7
	maximum = 420
Network latency average = 28.3724
	minimum = 7
	maximum = 285
Slowest packet = 28138
Flit latency average = 28.9359
	minimum = 7
	maximum = 285
Slowest flit = 29771
Fragmentation average = 0
	minimum = 0
	maximum = 0
Injected packet rate average = 0.0994583
	minimum = 0.0813333 (at node 8)
	maximum = 0.119333 (at node 14)
Accepted packet rate average = 0.100042
	minimum = 0.0833333 (at node 2)
	maximum = 0.11 (at node 1)
Injected flit rate average = 0.0994583
	minimum = 0.0813333 (at node 8)
	maximum = 0.119333 (at node 14)
Accepted flit rate average= 0.100042
	minimum = 0.0833333 (at node 2)
	maximum = 0.11 (at node 1)
Injected packet length average = 1
Accepted packet length average = 1
Total in-flight flits = 38 (38 measured)
latency change    = 0.0258971
throughput change = 0.0401916
Class 0:
Packet latency average = 42.9228
	minimum = 7
	maximum = 420
Network latency average = 27.7698
	minimum = 7
	maximum = 285
Slowest packet = 28138
Flit latency average = 28.2041
	minimum = 7
	maximum = 285
Slowest flit = 29771
Fragmentation average = 0
	minimum = 0
	maximum = 0
Injected packet rate average = 0.099375
	minimum = 0.078 (at node 8)
	maximum = 0.114 (at node 14)
Accepted packet rate average = 0.0996875
	minimum = 0.0895 (at node 2)
	maximum = 0.1105 (at node 7)
Injected flit rate average = 0.099375
	minimum = 0.078 (at node 8)
	maximum = 0.114 (at node 14)
Accepted flit rate average= 0.0996875
	minimum = 0.0895 (at node 2)
	maximum = 0.1105 (at node 7)
Injected packet length average = 1
Accepted packet length average = 1
Total in-flight flits = 42 (42 measured)
latency change    = 0.0258873
throughput change = 0.00355277
Class 0:
Packet latency average = 40.7515
	minimum = 7
	maximum = 420
Network latency average = 27.717
	minimum = 7
	maximum = 285
Slowest packet = 28138
Flit latency average = 28.0674
	minimum = 7
	maximum = 285
Slowest flit = 29771
Fragmentation average = 0
	minimum = 0
	maximum = 0
Injected packet rate average = 0.0989
	minimum = 0.0796 (at node 8)
	maximum = 0.1092 (at node 7)
Accepted packet rate average = 0.09905
	minimum = 0.0904 (at node 13)
	maximum = 0.1116 (at node 7)
Injected flit rate average = 0.0989
	minimum = 0.0796 (at node 8)
	maximum = 0.1092 (at node 7)
Accepted flit rate average= 0.09905
	minimum = 0.0904 (at node 13)
	maximum = 0.1116 (at node 7)
Injected packet length average = 1
Accepted packet length average = 1
Total in-flight flits = 46 (46 measured)
latency change    = 0.0532813
throughput change = 0.00643614
Class 0:
Packet latency average = 40.3285
	minimum = 7
	maximum = 420
Network latency average = 27.4689
	minimum = 7
	maximum = 285
Slowest packet = 28138
Flit latency average = 27.7619
	minimum = 7
	maximum = 285
Slowest flit = 29771
Fragmentation average = 0
	minimum = 0
	maximum = 0
Injected packet rate average = 0.0995208
	minimum = 0.0823333 (at node 8)
	maximum = 0.109 (at node 14)
Accepted packet rate average = 0.0996667
	minimum = 0.093 (at node 14)
	maximum = 0.109 (at node 7)
Injected flit rate average = 0.0995208
	minimum = 0.0823333 (at node 8)
	maximum = 0.109 (at node 14)
Accepted flit rate average= 0.0996667
	minimum = 0.093 (at node 14)
	maximum = 0.109 (at node 7)
Injected packet length average = 1
Accepted packet length average = 1
Total in-flight flits = 44 (44 measured)
latency change    = 0.0104887
throughput change = 0.00618729
Class 0:
Packet latency average = 38.4194
	minimum = 7
	maximum = 420
Network latency average = 27.2748
	minimum = 7
	maximum = 285
Slowest packet = 28138
Flit latency average = 27.5297
	minimum = 7
	maximum = 285
Slowest flit = 29771
Fragmentation average = 0
	minimum = 0
	maximum = 0
Injected packet rate average = 0.09875
	minimum = 0.0854286 (at node 8)
	maximum = 0.108571 (at node 14)
Accepted packet rate average = 0.0989464
	minimum = 0.0928571 (at node 10)
	maximum = 0.107429 (at node 7)
Injected flit rate average = 0.09875
	minimum = 0.0854286 (at node 8)
	maximum = 0.108571 (at node 14)
Accepted flit rate average= 0.0989464
	minimum = 0.0928571 (at node 10)
	maximum = 0.107429 (at node 7)
Injected packet length average = 1
Accepted packet length average = 1
Total in-flight flits = 40 (40 measured)
latency change    = 0.0496933
throughput change = 0.00727907
Draining all recorded packets ...
Draining remaining packets ...
Time taken is 5135 cycles
Class 0:
Packet latency average = 24.362
	minimum = 7
	maximum = 114
Network latency average = 24.3372
	minimum = 7
	maximum = 114
Slowest packet = 34102
Flit latency average = 24.3372
	minimum = 7
	maximum = 114
Slowest flit = 34102
Fragmentation average = 0
	minimum = 0
	maximum = 0
Injected packet rate average = 0.100375
	minimum = 0.082 (at node 2)
	maximum = 0.114 (at node 0)
Accepted packet rate average = 0.096
	minimum = 0.07 (at node 2)
	maximum = 0.124 (at node 12)
Injected flit rate average = 0.100375
	minimum = 0.082 (at node 2)
	maximum = 0.114 (at node 0)
Accepted flit rate average= 0.096
	minimum = 0.07 (at node 2)
	maximum = 0.124 (at node 12)
Injected packet length average = 1
Accepted packet length average = 1
Total in-flight flits = 35 (0 measured)
latency change    = 1
throughput change = 1
Class 0:
Packet latency average = 24.5448
	minimum = 7
	maximum = 114
Network latency average = 24.5301
	minimum = 7
	maximum = 114
Slowest packet = 34102
Flit latency average = 24.5301
	minimum = 7
	maximum = 114
Slowest flit = 34102
Fragmentation average = 0
	minimum = 0
	maximum = 0
Injected packet rate average = 0.10025
	minimum = 0.083 (at node 2)
	maximum = 0.117 (at node 10)
Accepted packet rate average = 0.09775
	minimum = 0.079 (at node 2)
	maximum = 0.117 (at node 14)
Injected flit rate average = 0.10025
	minimum = 0.083 (at node 2)
	maximum = 0.117 (at node 10)
Accepted flit rate average= 0.09775
	minimum = 0.079 (at node 2)
	maximum = 0.117 (at node 14)
Injected packet length average = 1
Accepted packet length average = 1
Total in-flight flits = 41 (0 measured)
latency change    = 0.00744672
throughput change = 0.0179028
Class 0:
Packet latency average = 32.0219
	minimum = 7
	maximum = 271
Network latency average = 29.6607
	minimum = 7
	maximum = 252
Slowest packet = 35453
Flit latency average = 29.6607
	minimum = 7
	maximum = 252
Slowest flit = 35453
Fragmentation average = 0
	minimum = 0
	maximum = 0
Injected packet rate average = 0.09875
	minimum = 0.06 (at node 12)
	maximum = 0.118 (at node 9)
Accepted packet rate average = 0.09725
	minimum = 0.058 (at node 2)
	maximum = 0.13 (at node 13)
Injected flit rate average = 0.09875
	minimum = 0.06 (at node 12)
	maximum = 0.118 (at node 9)
Accepted flit rate average= 0.09725
	minimum = 0.058 (at node 2)
	maximum = 0.13 (at node 13)
Injected packet length average = 1
Accepted packet length average = 1
Total in-flight flits = 54 (0 measured)
latency change    = 0.2335
throughput change = 0.00514139
Warmed up ...Time used is 1500 cycles
Class 0:
Packet latency average = 37.6121
	minimum = 7
	maximum = 456
Network latency average = 27.0564
	minimum = 7
	maximum = 201
Slowest packet = 36138
Flit latency average = 28.6159
	minimum = 7
	maximum = 201
Slowest flit = 36273
Fragmentation average = 0
	minimum = 0
	maximum = 0
Injected packet rate average = 0.096875
	minimum = 0.066 (at node 12)
	maximum = 0.116 (at node 0)
Accepted packet rate average = 0.097625
	minimum = 0.08 (at node 14)
	maximum = 0.114 (at node 9)
Injected flit rate average = 0.096875
	minimum = 0.066 (at node 12)
	maximum = 0.116 (at node 0)
Accepted flit rate average= 0.097625
	minimum = 0.08 (at node 14)
	maximum = 0.114 (at node 9)
Injected packet length average = 1
Accepted packet length average = 1
Total in-flight flits = 48 (48 measured)
latency change    = 0.148629
throughput change = 0.00384123
Class 0:
Packet latency average = 43.0961
	minimum = 7
	maximum = 685
Network latency average = 27.8472
	minimum = 7
	maximum = 297
Slowest packet = 36138
Flit latency average = 28.5794
	minimum = 7
	maximum = 297
Slowest flit = 36678
Fragmentation average = 0
	minimum = 0
	maximum = 0
Injected packet rate average = 0.099125
	minimum = 0.072 (at node 12)
	maximum = 0.12 (at node 14)
Accepted packet rate average = 0.100312
	minimum = 0.082 (at node 7)
	maximum = 0.112 (at node 4)
Injected flit rate average = 0.099125
	minimum = 0.072 (at node 12)
	maximum = 0.12 (at node 14)
Accepted flit rate average= 0.100312
	minimum = 0.082 (at node 7)
	maximum = 0.112 (at node 4)
Injected packet length average = 1
Accepted packet length average = 1
Total in-flight flits = 34 (34 measured)
latency change    = 0.12725
throughput change = 0.0267913
Class 0:
Packet latency average = 49.0926
	minimum = 7
	maximum = 685
Network latency average = 27.0719
	minimum = 7
	maximum = 297
Slowest packet = 36138
Flit latency average = 27.5753
	minimum = 7
	maximum = 297
Slowest flit = 36678
Fragmentation average = 0
	minimum = 0
	maximum = 0
Injected packet rate average = 0.100458
	minimum = 0.0886667 (at node 8)
	maximum = 0.116667 (at node 14)
Accepted packet rate average = 0.10075
	minimum = 0.0873333 (at node 7)
	maximum = 0.115333 (at node 3)
Injected flit rate average = 0.100458
	minimum = 0.0886667 (at node 8)
	maximum = 0.116667 (at node 14)
Accepted flit rate average= 0.10075
	minimum = 0.0873333 (at node 7)
	maximum = 0.115333 (at node 3)
Injected packet length average = 1
Accepted packet length average = 1
Total in-flight flits = 46 (46 measured)
latency change    = 0.122148
throughput change = 0.00434243
Class 0:
Packet latency average = 46.2713
	minimum = 7
	maximum = 685
Network latency average = 27.1501
	minimum = 7
	maximum = 297
Slowest packet = 36138
Flit latency average = 27.5285
	minimum = 7
	maximum = 297
Slowest flit = 36678
Fragmentation average = 0
	minimum = 0
	maximum = 0
Injected packet rate average = 0.0999687
	minimum = 0.0895 (at node 8)
	maximum = 0.111 (at node 14)
Accepted packet rate average = 0.100156
	minimum = 0.088 (at node 13)
	maximum = 0.1115 (at node 4)
Injected flit rate average = 0.0999687
	minimum = 0.0895 (at node 8)
	maximum = 0.111 (at node 14)
Accepted flit rate average= 0.100156
	minimum = 0.088 (at node 13)
	maximum = 0.1115 (at node 4)
Injected packet length average = 1
Accepted packet length average = 1
Total in-flight flits = 47 (47 measured)
latency change    = 0.0609729
throughput change = 0.00592824
Class 0:
Packet latency average = 43.5816
	minimum = 7
	maximum = 685
Network latency average = 26.9678
	minimum = 7
	maximum = 297
Slowest packet = 36138
Flit latency average = 27.2735
	minimum = 7
	maximum = 297
Slowest flit = 36678
Fragmentation average = 0
	minimum = 0
	maximum = 0
Injected packet rate average = 0.099675
	minimum = 0.0916 (at node 5)
	maximum = 0.1112 (at node 12)
Accepted packet rate average = 0.1
	minimum = 0.0876 (at node 13)
	maximum = 0.1096 (at node 4)
Injected flit rate average = 0.099675
	minimum = 0.0916 (at node 5)
	maximum = 0.1112 (at node 12)
Accepted flit rate average= 0.1
	minimum = 0.0876 (at node 13)
	maximum = 0.1096 (at node 4)
Injected packet length average = 1
Accepted packet length average = 1
Total in-flight flits = 40 (40 measured)
latency change    = 0.0617173
throughput change = 0.0015625
Class 0:
Packet latency average = 40.3716
	minimum = 7
	maximum = 685
Network latency average = 26.4198
	minimum = 7
	maximum = 297
Slowest packet = 36138
Flit latency average = 26.6814
	minimum = 7
	maximum = 297
Slowest flit = 36678
Fragmentation average = 0
	minimum = 0
	maximum = 0
Injected packet rate average = 0.099375
	minimum = 0.0896667 (at node 2)
	maximum = 0.112 (at node 0)
Accepted packet rate average = 0.0997292
	minimum = 0.0863333 (at node 13)
	maximum = 0.109667 (at node 4)
Injected flit rate average = 0.099375
	minimum = 0.0896667 (at node 2)
	maximum = 0.112 (at node 0)
Accepted flit rate average= 0.0997292
	minimum = 0.0863333 (at node 13)
	maximum = 0.109667 (at node 4)
Injected packet length average = 1
Accepted packet length average = 1
Total in-flight flits = 35 (35 measured)
latency change    = 0.0795102
throughput change = 0.00271569
Class 0:
Packet latency average = 38.5693
	minimum = 7
	maximum = 685
Network latency average = 26.3818
	minimum = 7
	maximum = 297
Slowest packet = 36138
Flit latency average = 26.6068
	minimum = 7
	maximum = 297
Slowest flit = 36678
Fragmentation average = 0
	minimum = 0
	maximum = 0
Injected packet rate average = 0.09925
	minimum = 0.0891429 (at node 2)
	maximum = 0.111143 (at node 0)
Accepted packet rate average = 0.0995536
	minimum = 0.09 (at node 13)
	maximum = 0.110857 (at node 4)
Injected flit rate average = 0.09925
	minimum = 0.0891429 (at node 2)
	maximum = 0.111143 (at node 0)
Accepted flit rate average= 0.0995536
	minimum = 0.09 (at node 13)
	maximum = 0.110857 (at node 4)
Injected packet length average = 1
Accepted packet length average = 1
Total in-flight flits = 35 (35 measured)
latency change    = 0.0467306
throughput change = 0.00176383
Draining all recorded packets ...
Draining remaining packets ...
Time taken is 5305 cycles
Class 0:
Packet latency average = 22.5205
	minimum = 7
	maximum = 98
Network latency average = 22.2828
	minimum = 7
	maximum = 76
Slowest packet = 42409
Flit latency average = 22.2828
	minimum = 7
	maximum = 76
Slowest flit = 42409
Fragmentation average = 0
	minimum = 0
	maximum = 0
Injected packet rate average = 0.095875
	minimum = 0.076 (at node 10)
	maximum = 0.132 (at node 8)
Accepted packet rate average = 0.0915
	minimum = 0.066 (at node 7)
	maximum = 0.118 (at node 6)
Injected flit rate average = 0.095875
	minimum = 0.076 (at node 10)
	maximum = 0.132 (at node 8)
Accepted flit rate average= 0.0915
	minimum = 0.066 (at node 7)
	maximum = 0.118 (at node 6)
Injected packet length average = 1
Accepted packet length average = 1
Total in-flight flits = 35 (0 measured)
latency change    = 1
throughput change = 1
Class 0:
Packet latency average = 23.0331
	minimum = 7
	maximum = 98
Network latency average = 22.9205
	minimum = 7
	maximum = 79
Slowest packet = 42409
Flit latency average = 22.9205
	minimum = 7
	maximum = 79
Slowest flit = 43215
Fragmentation average = 0
	minimum = 0
	maximum = 0
Injected packet rate average = 0.100375
	minimum = 0.082 (at node 12)
	maximum = 0.122 (at node 8)
Accepted packet rate average = 0.09825
	minimum = 0.085 (at node 7)
	maximum = 0.122 (at node 6)
Injected flit rate average = 0.100375
	minimum = 0.082 (at node 12)
	maximum = 0.122 (at node 8)
Accepted flit rate average= 0.09825
	minimum = 0.085 (at node 7)
	maximum = 0.122 (at node 6)
Injected packet length average = 1
Accepted packet length average = 1
Total in-flight flits = 34 (0 measured)
latency change    = 0.0222544
throughput change = 0.0687023
Class 0:
Packet latency average = 24.4279
	minimum = 7
	maximum = 123
Network latency average = 24.1853
	minimum = 7
	maximum = 123
Slowest packet = 44022
Flit latency average = 24.1853
	minimum = 7
	maximum = 123
Slowest flit = 44022
Fragmentation average = 0
	minimum = 0
	maximum = 0
Injected packet rate average = 0.10075
	minimum = 0.078 (at node 10)
	maximum = 0.134 (at node 5)
Accepted packet rate average = 0.1005
	minimum = 0.08 (at node 2)
	maximum = 0.13 (at node 10)
Injected flit rate average = 0.10075
	minimum = 0.078 (at node 10)
	maximum = 0.134 (at node 5)
Accepted flit rate average= 0.1005
	minimum = 0.08 (at node 2)
	maximum = 0.13 (at node 10)
Injected packet length average = 1
Accepted packet length average = 1
Total in-flight flits = 36 (0 measured)
latency change    = 0.057098
throughput change = 0.0223881
Warmed up ...Time used is 1500 cycles
Class 0:
Packet latency average = 22.7695
	minimum = 7
	maximum = 123
Network latency average = 22.7603
	minimum = 7
	maximum = 123
Slowest packet = 44825
Flit latency average = 23.0253
	minimum = 7
	maximum = 123
Slowest flit = 44825
Fragmentation average = 0
	minimum = 0
	maximum = 0
Injected packet rate average = 0.097625
	minimum = 0.078 (at node 14)
	maximum = 0.122 (at node 9)
Accepted packet rate average = 0.098875
	minimum = 0.07 (at node 13)
	maximum = 0.12 (at node 5)
Injected flit rate average = 0.097625
	minimum = 0.078 (at node 14)
	maximum = 0.122 (at node 9)
Accepted flit rate average= 0.098875
	minimum = 0.07 (at node 13)
	maximum = 0.12 (at node 5)
Injected packet length average = 1
Accepted packet length average = 1
Total in-flight flits = 26 (26 measured)
latency change    = 0.0728308
throughput change = 0.0164349
Class 0:
Packet latency average = 24.9678
	minimum = 7
	maximum = 180
Network latency average = 24.5344
	minimum = 7
	maximum = 165
Slowest packet = 45800
Flit latency average = 24.6243
	minimum = 7
	maximum = 165
Slowest flit = 45800
Fragmentation average = 0
	minimum = 0
	maximum = 0
Injected packet rate average = 0.102063
	minimum = 0.086 (at node 15)
	maximum = 0.12 (at node 13)
Accepted packet rate average = 0.101312
	minimum = 0.085 (at node 3)
	maximum = 0.125 (at node 5)
Injected flit rate average = 0.102063
	minimum = 0.086 (at node 15)
	maximum = 0.12 (at node 13)
Accepted flit rate average= 0.101312
	minimum = 0.085 (at node 3)
	maximum = 0.125 (at node 5)
Injected packet length average = 1
Accepted packet length average = 1
Total in-flight flits = 48 (48 measured)
latency change    = 0.0880448
throughput change = 0.0240592
Class 0:
Packet latency average = 24.5419
	minimum = 7
	maximum = 180
Network latency average = 24.2007
	minimum = 7
	maximum = 165
Slowest packet = 45800
Flit latency average = 24.2655
	minimum = 7
	maximum = 165
Slowest flit = 45800
Fragmentation average = 0
	minimum = 0
	maximum = 0
Injected packet rate average = 0.101458
	minimum = 0.0833333 (at node 15)
	maximum = 0.114667 (at node 8)
Accepted packet rate average = 0.101375
	minimum = 0.0873333 (at node 3)
	maximum = 0.119333 (at node 9)
Injected flit rate average = 0.101458
	minimum = 0.0833333 (at node 15)
	maximum = 0.114667 (at node 8)
Accepted flit rate average= 0.101375
	minimum = 0.0873333 (at node 3)
	maximum = 0.119333 (at node 9)
Injected packet length average = 1
Accepted packet length average = 1
Total in-flight flits = 38 (38 measured)
latency change    = 0.0173538
throughput change = 0.000616523
Class 0:
Packet latency average = 24.2163
	minimum = 7
	maximum = 180
Network latency average = 23.945
	minimum = 7
	maximum = 165
Slowest packet = 45800
Flit latency average = 23.9957
	minimum = 7
	maximum = 165
Slowest flit = 45800
Fragmentation average = 0
	minimum = 0
	maximum = 0
Injected packet rate average = 0.102844
	minimum = 0.0875 (at node 15)
	maximum = 0.114 (at node 8)
Accepted packet rate average = 0.102844
	minimum = 0.0895 (at node 3)
	maximum = 0.119 (at node 0)
Injected flit rate average = 0.102844
	minimum = 0.0875 (at node 15)
	maximum = 0.114 (at node 8)
Accepted flit rate average= 0.102844
	minimum = 0.0895 (at node 3)
	maximum = 0.119 (at node 0)
Injected packet length average = 1
Accepted packet length average = 1
Total in-flight flits = 36 (36 measured)
latency change    = 0.0134473
throughput change = 0.0142814
Class 0:
Packet latency average = 24.0404
	minimum = 7
	maximum = 180
Network latency average = 23.7799
	minimum = 7
	maximum = 165
Slowest packet = 45800
Flit latency average = 23.8224
	minimum = 7
	maximum = 165
Slowest flit = 45800
Fragmentation average = 0
	minimum = 0
	maximum = 0
Injected packet rate average = 0.101975
	minimum = 0.0872 (at node 15)
	maximum = 0.1124 (at node 5)
Accepted packet rate average = 0.10175
	minimum = 0.0868 (at node 3)
	maximum = 0.1136 (at node 0)
Injected flit rate average = 0.101975
	minimum = 0.0872 (at node 15)
	maximum = 0.1124 (at node 5)
Accepted flit rate average= 0.10175
	minimum = 0.0868 (at node 3)
	maximum = 0.1136 (at node 0)
Injected packet length average = 1
Accepted packet length average = 1
Total in-flight flits = 45 (45 measured)
latency change    = 0.00731585
throughput change = 0.0107494
Draining all recorded packets ...
Draining remaining packets ...
Time taken is 4077 cycles
Class 0:
Packet latency average = 26.4961
	minimum = 7
	maximum = 170
Network latency average = 26.2312
	minimum = 7
	maximum = 170
Slowest packet = 49032
Flit latency average = 26.2312
	minimum = 7
	maximum = 170
Slowest flit = 49032
Fragmentation average = 0
	minimum = 0
	maximum = 0
Injected packet rate average = 0.100625
	minimum = 0.076 (at node 15)
	maximum = 0.126 (at node 8)
Accepted packet rate average = 0.09625
	minimum = 0.07 (at node 8)
	maximum = 0.114 (at node 10)
Injected flit rate average = 0.100625
	minimum = 0.076 (at node 15)
	maximum = 0.126 (at node 8)
Accepted flit rate average= 0.09625
	minimum = 0.07 (at node 8)
	maximum = 0.114 (at node 10)
Injected packet length average = 1
Accepted packet length average = 1
Total in-flight flits = 36 (0 measured)
latency change    = 1
throughput change = 1
Class 0:
Packet latency average = 26.7594
	minimum = 7
	maximum = 199
Network latency average = 25.9479
	minimum = 7
	maximum = 195
Slowest packet = 49197
Flit latency average = 25.9479
	minimum = 7
	maximum = 195
Slowest flit = 49197
Fragmentation average = 0
	minimum = 0
	maximum = 0
Injected packet rate average = 0.101625
	minimum = 0.083 (at node 15)
	maximum = 0.126 (at node 8)
Accepted packet rate average = 0.0984375
	minimum = 0.08 (at node 2)
	maximum = 0.113 (at node 13)
Injected flit rate average = 0.101625
	minimum = 0.083 (at node 15)
	maximum = 0.126 (at node 8)
Accepted flit rate average= 0.0984375
	minimum = 0.08 (at node 2)
	maximum = 0.113 (at node 13)
Injected packet length average = 1
Accepted packet length average = 1
Total in-flight flits = 52 (0 measured)
latency change    = 0.0098381
throughput change = 0.0222222
Class 0:
Packet latency average = 27.2463
	minimum = 7
	maximum = 202
Network latency average = 26.0087
	minimum = 7
	maximum = 202
Slowest packet = 50214
Flit latency average = 26.0087
	minimum = 7
	maximum = 202
Slowest flit = 50214
Fragmentation average = 0
	minimum = 0
	maximum = 0
Injected packet rate average = 0.099375
	minimum = 0.082 (at node 0)
	maximum = 0.116 (at node 8)
Accepted packet rate average = 0.1005
	minimum = 0.074 (at node 12)
	maximum = 0.128 (at node 14)
Injected flit rate average = 0.099375
	minimum = 0.082 (at node 0)
	maximum = 0.116 (at node 8)
Accepted flit rate average= 0.1005
	minimum = 0.074 (at node 12)
	maximum = 0.128 (at node 14)
Injected packet length average = 1
Accepted packet length average = 1
Total in-flight flits = 42 (0 measured)
latency change    = 0.0178705
throughput change = 0.0205224
Warmed up ...Time used is 1500 cycles
Class 0:
Packet latency average = 22.8646
	minimum = 7
	maximum = 69
Network latency average = 22.8164
	minimum = 7
	maximum = 69
Slowest packet = 51282
Flit latency average = 23.3896
	minimum = 7
	maximum = 80
Slowest flit = 51004
Fragmentation average = 0
	minimum = 0
	maximum = 0
Injected packet rate average = 0.098125
	minimum = 0.078 (at node 2)
	maximum = 0.116 (at node 11)
Accepted packet rate average = 0.0985
	minimum = 0.072 (at node 1)
	maximum = 0.12 (at node 10)
Injected flit rate average = 0.098125
	minimum = 0.078 (at node 2)
	maximum = 0.116 (at node 11)
Accepted flit rate average= 0.0985
	minimum = 0.072 (at node 1)
	maximum = 0.12 (at node 10)
Injected packet length average = 1
Accepted packet length average = 1
Total in-flight flits = 40 (40 measured)
latency change    = 0.191635
throughput change = 0.0203046
Class 0:
Packet latency average = 25.568
	minimum = 7
	maximum = 160
Network latency average = 24.2821
	minimum = 7
	maximum = 156
Slowest packet = 51814
Flit latency average = 24.5245
	minimum = 7
	maximum = 156
Slowest flit = 51814
Fragmentation average = 0
	minimum = 0
	maximum = 0
Injected packet rate average = 0.100625
	minimum = 0.088 (at node 0)
	maximum = 0.116 (at node 12)
Accepted packet rate average = 0.100562
	minimum = 0.082 (at node 1)
	maximum = 0.12 (at node 10)
Injected flit rate average = 0.100625
	minimum = 0.088 (at node 0)
	maximum = 0.116 (at node 12)
Accepted flit rate average= 0.100562
	minimum = 0.082 (at node 1)
	maximum = 0.12 (at node 10)
Injected packet length average = 1
Accepted packet length average = 1
Total in-flight flits = 43 (43 measured)
latency change    = 0.105732
throughput change = 0.0205096
Class 0:
Packet latency average = 25.5736
	minimum = 7
	maximum = 175
Network latency average = 24.7084
	minimum = 7
	maximum = 175
Slowest packet = 53120
Flit latency average = 24.861
	minimum = 7
	maximum = 175
Slowest flit = 53120
Fragmentation average = 0
	minimum = 0
	maximum = 0
Injected packet rate average = 0.101958
	minimum = 0.0886667 (at node 4)
	maximum = 0.118 (at node 6)
Accepted packet rate average = 0.101625
	minimum = 0.0886667 (at node 1)
	maximum = 0.122 (at node 10)
Injected flit rate average = 0.101958
	minimum = 0.0886667 (at node 4)
	maximum = 0.118 (at node 6)
Accepted flit rate average= 0.101625
	minimum = 0.0886667 (at node 1)
	maximum = 0.122 (at node 10)
Injected packet length average = 1
Accepted packet length average = 1
Total in-flight flits = 51 (51 measured)
latency change    = 0.000221691
throughput change = 0.0104551
Class 0:
Packet latency average = 25.4012
	minimum = 7
	maximum = 175
Network latency average = 24.659
	minimum = 7
	maximum = 175
Slowest packet = 53120
Flit latency average = 24.7743
	minimum = 7
	maximum = 175
Slowest flit = 53120
Fragmentation average = 0
	minimum = 0
	maximum = 0
Injected packet rate average = 0.102063
	minimum = 0.0875 (at node 1)
	maximum = 0.113 (at node 12)
Accepted packet rate average = 0.101469
	minimum = 0.0915 (at node 11)
	maximum = 0.1145 (at node 10)
Injected flit rate average = 0.102063
	minimum = 0.0875 (at node 1)
	maximum = 0.113 (at node 12)
Accepted flit rate average= 0.101469
	minimum = 0.0915 (at node 11)
	maximum = 0.1145 (at node 10)
Injected packet length average = 1
Accepted packet length average = 1
Total in-flight flits = 61 (61 measured)
latency change    = 0.0067865
throughput change = 0.00153988
Class 0:
Packet latency average = 26.9271
	minimum = 7
	maximum = 257
Network latency average = 25.5331
	minimum = 7
	maximum = 200
Slowest packet = 54344
Flit latency average = 25.6166
	minimum = 7
	maximum = 200
Slowest flit = 54667
Fragmentation average = 0
	minimum = 0
	maximum = 0
Injected packet rate average = 0.101175
	minimum = 0.0884 (at node 1)
	maximum = 0.1088 (at node 3)
Accepted packet rate average = 0.101125
	minimum = 0.094 (at node 1)
	maximum = 0.1108 (at node 9)
Injected flit rate average = 0.101175
	minimum = 0.0884 (at node 1)
	maximum = 0.1088 (at node 3)
Accepted flit rate average= 0.101125
	minimum = 0.094 (at node 1)
	maximum = 0.1108 (at node 9)
Injected packet length average = 1
Accepted packet length average = 1
Total in-flight flits = 46 (46 measured)
latency change    = 0.0566644
throughput change = 0.00339926
Class 0:
Packet latency average = 29.0774
	minimum = 7
	maximum = 397
Network latency average = 25.8771
	minimum = 7
	maximum = 250
Slowest packet = 54344
Flit latency average = 25.9436
	minimum = 7
	maximum = 250
Slowest flit = 55241
Fragmentation average = 0
	minimum = 0
	maximum = 0
Injected packet rate average = 0.101417
	minimum = 0.0903333 (at node 4)
	maximum = 0.107667 (at node 14)
Accepted packet rate average = 0.10125
	minimum = 0.0933333 (at node 1)
	maximum = 0.11 (at node 10)
Injected flit rate average = 0.101417
	minimum = 0.0903333 (at node 4)
	maximum = 0.107667 (at node 14)
Accepted flit rate average= 0.10125
	minimum = 0.0933333 (at node 1)
	maximum = 0.11 (at node 10)
Injected packet length average = 1
Accepted packet length average = 1
Total in-flight flits = 51 (51 measured)
latency change    = 0.073953
throughput change = 0.00123457
Class 0:
Packet latency average = 31.9196
	minimum = 7
	maximum = 519
Network latency average = 26.2674
	minimum = 7
	maximum = 271
Slowest packet = 54344
Flit latency average = 26.3216
	minimum = 7
	maximum = 271
Slowest flit = 55590
Fragmentation average = 0
	minimum = 0
	maximum = 0
Injected packet rate average = 0.101286
	minimum = 0.0908571 (at node 10)
	maximum = 0.108286 (at node 3)
Accepted packet rate average = 0.101179
	minimum = 0.092 (at node 1)
	maximum = 0.108857 (at node 9)
Injected flit rate average = 0.101286
	minimum = 0.0908571 (at node 10)
	maximum = 0.108286 (at node 3)
Accepted flit rate average= 0.101179
	minimum = 0.092 (at node 1)
	maximum = 0.108857 (at node 9)
Injected packet length average = 1
Accepted packet length average = 1
Total in-flight flits = 49 (49 measured)
latency change    = 0.0890428
throughput change = 0.000705965
Draining all recorded packets ...
Draining remaining packets ...
Time taken is 5432 cycles
Class 0:
Packet latency average = 23.5196
	minimum = 7
	maximum = 101
Network latency average = 23.483
	minimum = 7
	maximum = 96
Slowest packet = 57886
Flit latency average = 23.483
	minimum = 7
	maximum = 96
Slowest flit = 57886
Fragmentation average = 0
	minimum = 0
	maximum = 0
Injected packet rate average = 0.09975
	minimum = 0.084 (at node 7)
	maximum = 0.116 (at node 12)
Accepted packet rate average = 0.0955
	minimum = 0.064 (at node 6)
	maximum = 0.118 (at node 9)
Injected flit rate average = 0.09975
	minimum = 0.084 (at node 7)
	maximum = 0.116 (at node 12)
Accepted flit rate average= 0.0955
	minimum = 0.064 (at node 6)
	maximum = 0.118 (at node 9)
Injected packet length average = 1
Accepted packet length average = 1
Total in-flight flits = 34 (0 measured)
latency change    = 1
throughput change = 1
Class 0:
Packet latency average = 23.3608
	minimum = 7
	maximum = 114
Network latency average = 23.338
	minimum = 7
	maximum = 114
Slowest packet = 57933
Flit latency average = 23.338
	minimum = 7
	maximum = 114
Slowest flit = 57933
Fragmentation average = 0
	minimum = 0
	maximum = 0
Injected packet rate average = 0.100875
	minimum = 0.082 (at node 1)
	maximum = 0.112 (at node 14)
Accepted packet rate average = 0.0985625
	minimum = 0.076 (at node 6)
	maximum = 0.109 (at node 10)
Injected flit rate average = 0.100875
	minimum = 0.082 (at node 1)
	maximum = 0.112 (at node 14)
Accepted flit rate average= 0.0985625
	minimum = 0.076 (at node 6)
	maximum = 0.109 (at node 10)
Injected packet length average = 1
Accepted packet length average = 1
Total in-flight flits = 38 (0 measured)
latency change    = 0.00679864
throughput change = 0.0310717
Class 0:
Packet latency average = 27.6393
	minimum = 7
	maximum = 190
Network latency average = 26.7811
	minimum = 7
	maximum = 184
Slowest packet = 58857
Flit latency average = 26.7811
	minimum = 7
	maximum = 184
Slowest flit = 58857
Fragmentation average = 0
	minimum = 0
	maximum = 0
Injected packet rate average = 0.100625
	minimum = 0.084 (at node 3)
	maximum = 0.14 (at node 4)
Accepted packet rate average = 0.1005
	minimum = 0.064 (at node 5)
	maximum = 0.122 (at node 4)
Injected flit rate average = 0.100625
	minimum = 0.084 (at node 3)
	maximum = 0.14 (at node 4)
Accepted flit rate average= 0.1005
	minimum = 0.064 (at node 5)
	maximum = 0.122 (at node 4)
Injected packet length average = 1
Accepted packet length average = 1
Total in-flight flits = 38 (0 measured)
latency change    = 0.154797
throughput change = 0.0192786
Warmed up ...Time used is 1500 cycles
Class 0:
Packet latency average = 23.8735
	minimum = 7
	maximum = 92
Network latency average = 23.6823
	minimum = 7
	maximum = 90
Slowest packet = 60013
Flit latency average = 23.766
	minimum = 7
	maximum = 90
Slowest flit = 60013
Fragmentation average = 0
	minimum = 0
	maximum = 0
Injected packet rate average = 0.0955
	minimum = 0.07 (at node 15)
	maximum = 0.112 (at node 2)
Accepted packet rate average = 0.095625
	minimum = 0.074 (at node 5)
	maximum = 0.124 (at node 6)
Injected flit rate average = 0.0955
	minimum = 0.07 (at node 15)
	maximum = 0.112 (at node 2)
Accepted flit rate average= 0.095625
	minimum = 0.074 (at node 5)
	maximum = 0.124 (at node 6)
Injected packet length average = 1
Accepted packet length average = 1
Total in-flight flits = 37 (37 measured)
latency change    = 0.157742
throughput change = 0.0509804
Class 0:
Packet latency average = 30.0738
	minimum = 7
	maximum = 377
Network latency average = 25.9014
	minimum = 7
	maximum = 320
Slowest packet = 60535
Flit latency average = 25.8885
	minimum = 7
	maximum = 320
Slowest flit = 60535
Fragmentation average = 0
	minimum = 0
	maximum = 0
Injected packet rate average = 0.098125
	minimum = 0.073 (at node 15)
	maximum = 0.111 (at node 2)
Accepted packet rate average = 0.0980625
	minimum = 0.079 (at node 1)
	maximum = 0.124 (at node 8)
Injected flit rate average = 0.098125
	minimum = 0.073 (at node 15)
	maximum = 0.111 (at node 2)
Accepted flit rate average= 0.0980625
	minimum = 0.079 (at node 1)
	maximum = 0.124 (at node 8)
Injected packet length average = 1
Accepted packet length average = 1
Total in-flight flits = 40 (40 measured)
latency change    = 0.206171
throughput change = 0.0248566
Class 0:
Packet latency average = 30.5506
	minimum = 7
	maximum = 377
Network latency average = 25.8976
	minimum = 7
	maximum = 320
Slowest packet = 60535
Flit latency average = 25.8889
	minimum = 7
	maximum = 320
Slowest flit = 60535
Fragmentation average = 0
	minimum = 0
	maximum = 0
Injected packet rate average = 0.0965833
	minimum = 0.0846667 (at node 15)
	maximum = 0.109333 (at node 2)
Accepted packet rate average = 0.0971667
	minimum = 0.0773333 (at node 1)
	maximum = 0.112667 (at node 8)
Injected flit rate average = 0.0965833
	minimum = 0.0846667 (at node 15)
	maximum = 0.109333 (at node 2)
Accepted flit rate average= 0.0971667
	minimum = 0.0773333 (at node 1)
	maximum = 0.112667 (at node 8)
Injected packet length average = 1
Accepted packet length average = 1
Total in-flight flits = 24 (24 measured)
latency change    = 0.0156056
throughput change = 0.00921955
Class 0:
Packet latency average = 28.9007
	minimum = 7
	maximum = 377
Network latency average = 25.3338
	minimum = 7
	maximum = 320
Slowest packet = 60535
Flit latency average = 25.3342
	minimum = 7
	maximum = 320
Slowest flit = 60535
Fragmentation average = 0
	minimum = 0
	maximum = 0
Injected packet rate average = 0.0958125
	minimum = 0.086 (at node 8)
	maximum = 0.114 (at node 2)
Accepted packet rate average = 0.0955625
	minimum = 0.0775 (at node 1)
	maximum = 0.104 (at node 8)
Injected flit rate average = 0.0958125
	minimum = 0.086 (at node 8)
	maximum = 0.114 (at node 2)
Accepted flit rate average= 0.0955625
	minimum = 0.0775 (at node 1)
	maximum = 0.104 (at node 8)
Injected packet length average = 1
Accepted packet length average = 1
Total in-flight flits = 46 (46 measured)
latency change    = 0.0570888
throughput change = 0.0167866
Class 0:
Packet latency average = 27.8659
	minimum = 7
	maximum = 377
Network latency average = 25.0372
	minimum = 7
	maximum = 320
Slowest packet = 60535
Flit latency average = 25.0405
	minimum = 7
	maximum = 320
Slowest flit = 60535
Fragmentation average = 0
	minimum = 0
	maximum = 0
Injected packet rate average = 0.0967
	minimum = 0.0864 (at node 8)
	maximum = 0.1108 (at node 2)
Accepted packet rate average = 0.096375
	minimum = 0.0812 (at node 1)
	maximum = 0.1048 (at node 10)
Injected flit rate average = 0.0967
	minimum = 0.0864 (at node 8)
	maximum = 0.1108 (at node 2)
Accepted flit rate average= 0.096375
	minimum = 0.0812 (at node 1)
	maximum = 0.1048 (at node 10)
Injected packet length average = 1
Accepted packet length average = 1
Total in-flight flits = 51 (51 measured)
latency change    = 0.037135
throughput change = 0.00843061
Class 0:
Packet latency average = 27.0329
	minimum = 7
	maximum = 377
Network latency average = 24.6961
	minimum = 7
	maximum = 320
Slowest packet = 60535
Flit latency average = 24.7016
	minimum = 7
	maximum = 320
Slowest flit = 60535
Fragmentation average = 0
	minimum = 0
	maximum = 0
Injected packet rate average = 0.0971042
	minimum = 0.09 (at node 8)
	maximum = 0.110667 (at node 2)
Accepted packet rate average = 0.0971042
	minimum = 0.0853333 (at node 1)
	maximum = 0.105667 (at node 10)
Injected flit rate average = 0.0971042
	minimum = 0.09 (at node 8)
	maximum = 0.110667 (at node 2)
Accepted flit rate average= 0.0971042
	minimum = 0.0853333 (at node 1)
	maximum = 0.105667 (at node 10)
Injected packet length average = 1
Accepted packet length average = 1
Total in-flight flits = 38 (38 measured)
latency change    = 0.0308137
throughput change = 0.00750912
Class 0:
Packet latency average = 26.5746
	minimum = 7
	maximum = 377
Network latency average = 24.5631
	minimum = 7
	maximum = 320
Slowest packet = 60535
Flit latency average = 24.5687
	minimum = 7
	maximum = 320
Slowest flit = 60535
Fragmentation average = 0
	minimum = 0
	maximum = 0
Injected packet rate average = 0.0975536
	minimum = 0.09 (at node 8)
	maximum = 0.108 (at node 2)
Accepted packet rate average = 0.0974286
	minimum = 0.0865714 (at node 1)
	maximum = 0.103714 (at node 5)
Injected flit rate average = 0.0975536
	minimum = 0.09 (at node 8)
	maximum = 0.108 (at node 2)
Accepted flit rate average= 0.0974286
	minimum = 0.0865714 (at node 1)
	maximum = 0.103714 (at node 5)
Injected packet length average = 1
Accepted packet length average = 1
Total in-flight flits = 47 (47 measured)
latency change    = 0.0172463
throughput change = 0.00332967
Draining all recorded packets ...
Draining remaining packets ...
Time taken is 5455 cycles
Class 0:
Packet latency average = 22.9719
	minimum = 7
	maximum = 78
Network latency average = 22.9612
	minimum = 7
	maximum = 78
Slowest packet = 65983
Flit latency average = 22.9612
	minimum = 7
	maximum = 78
Slowest flit = 65983
Fragmentation average = 0
	minimum = 0
	maximum = 0
Injected packet rate average = 0.097375
	minimum = 0.078 (at node 5)
	maximum = 0.124 (at node 3)
Accepted packet rate average = 0.0935
	minimum = 0.078 (at node 4)
	maximum = 0.11 (at node 5)
Injected flit rate average = 0.097375
	minimum = 0.078 (at node 5)
	maximum = 0.124 (at node 3)
Accepted flit rate average= 0.0935
	minimum = 0.078 (at node 4)
	maximum = 0.11 (at node 5)
Injected packet length average = 1
Accepted packet length average = 1
Total in-flight flits = 31 (0 measured)
latency change    = 1
throughput change = 1
Class 0:
Packet latency average = 23.2959
	minimum = 7
	maximum = 119
Network latency average = 23.2779
	minimum = 7
	maximum = 119
Slowest packet = 67125
Flit latency average = 23.2779
	minimum = 7
	maximum = 119
Slowest flit = 67125
Fragmentation average = 0
	minimum = 0
	maximum = 0
Injected packet rate average = 0.0991875
	minimum = 0.09 (at node 13)
	maximum = 0.114 (at node 3)
Accepted packet rate average = 0.0969375
	minimum = 0.084 (at node 12)
	maximum = 0.116 (at node 5)
Injected flit rate average = 0.0991875
	minimum = 0.09 (at node 13)
	maximum = 0.114 (at node 3)
Accepted flit rate average= 0.0969375
	minimum = 0.084 (at node 12)
	maximum = 0.116 (at node 5)
Injected packet length average = 1
Accepted packet length average = 1
Total in-flight flits = 37 (0 measured)
latency change    = 0.0139086
throughput change = 0.035461
Class 0:
Packet latency average = 31.112
	minimum = 7
	maximum = 216
Network latency average = 27.6957
	minimum = 7
	maximum = 192
Slowest packet = 67415
Flit latency average = 27.6957
	minimum = 7
	maximum = 192
Slowest flit = 67415
Fragmentation average = 0
	minimum = 0
	maximum = 0
Injected packet rate average = 0.09525
	minimum = 0.07 (at node 2)
	maximum = 0.112 (at node 0)
Accepted packet rate average = 0.094875
	minimum = 0.06 (at node 15)
	maximum = 0.132 (at node 6)
Injected flit rate average = 0.09525
	minimum = 0.07 (at node 2)
	maximum = 0.112 (at node 0)
Accepted flit rate average= 0.094875
	minimum = 0.06 (at node 15)
	maximum = 0.132 (at node 6)
Injected packet length average = 1
Accepted packet length average = 1
Total in-flight flits = 39 (0 measured)
latency change    = 0.251223
throughput change = 0.0217391
Warmed up ...Time used is 1500 cycles
Class 0:
Packet latency average = 25.0737
	minimum = 7
	maximum = 133
Network latency average = 25.0464
	minimum = 7
	maximum = 133
Slowest packet = 68191
Flit latency average = 25.5648
	minimum = 7
	maximum = 133
Slowest flit = 68191
Fragmentation average = 0
	minimum = 0
	maximum = 0
Injected packet rate average = 0.096
	minimum = 0.076 (at node 6)
	maximum = 0.114 (at node 1)
Accepted packet rate average = 0.0965
	minimum = 0.082 (at node 9)
	maximum = 0.112 (at node 1)
Injected flit rate average = 0.096
	minimum = 0.076 (at node 6)
	maximum = 0.114 (at node 1)
Accepted flit rate average= 0.0965
	minimum = 0.082 (at node 9)
	maximum = 0.112 (at node 1)
Injected packet length average = 1
Accepted packet length average = 1
Total in-flight flits = 36 (36 measured)
latency change    = 0.240823
throughput change = 0.0168394
Class 0:
Packet latency average = 25.2219
	minimum = 7
	maximum = 133
Network latency average = 24.9832
	minimum = 7
	maximum = 133
Slowest packet = 68191
Flit latency average = 25.2372
	minimum = 7
	maximum = 133
Slowest flit = 68191
Fragmentation average = 0
	minimum = 0
	maximum = 0
Injected packet rate average = 0.0994375
	minimum = 0.082 (at node 12)
	maximum = 0.116 (at node 15)
Accepted packet rate average = 0.0990625
	minimum = 0.086 (at node 0)
	maximum = 0.108 (at node 14)
Injected flit rate average = 0.0994375
	minimum = 0.082 (at node 12)
	maximum = 0.116 (at node 15)
Accepted flit rate average= 0.0990625
	minimum = 0.086 (at node 0)
	maximum = 0.108 (at node 14)
Injected packet length average = 1
Accepted packet length average = 1
Total in-flight flits = 45 (45 measured)
latency change    = 0.00587558
throughput change = 0.0258675
Class 0:
Packet latency average = 25.2482
	minimum = 7
	maximum = 146
Network latency average = 25.0316
	minimum = 7
	maximum = 146
Slowest packet = 69505
Flit latency average = 25.1978
	minimum = 7
	maximum = 146
Slowest flit = 69505
Fragmentation average = 0
	minimum = 0
	maximum = 0
Injected packet rate average = 0.100333
	minimum = 0.0846667 (at node 6)
	maximum = 0.113333 (at node 1)
Accepted packet rate average = 0.1005
	minimum = 0.0906667 (at node 0)
	maximum = 0.114667 (at node 4)
Injected flit rate average = 0.100333
	minimum = 0.0846667 (at node 6)
	maximum = 0.113333 (at node 1)
Accepted flit rate average= 0.1005
	minimum = 0.0906667 (at node 0)
	maximum = 0.114667 (at node 4)
Injected packet length average = 1
Accepted packet length average = 1
Total in-flight flits = 35 (35 measured)
latency change    = 0.00104349
throughput change = 0.0143035
Class 0:
Packet latency average = 25.0624
	minimum = 7
	maximum = 146
Network latency average = 24.8865
	minimum = 7
	maximum = 146
Slowest packet = 69505
Flit latency average = 25.0117
	minimum = 7
	maximum = 146
Slowest flit = 69505
Fragmentation average = 0
	minimum = 0
	maximum = 0
Injected packet rate average = 0.101562
	minimum = 0.0885 (at node 12)
	maximum = 0.118 (at node 1)
Accepted packet rate average = 0.101406
	minimum = 0.09 (at node 2)
	maximum = 0.1155 (at node 4)
Injected flit rate average = 0.101562
	minimum = 0.0885 (at node 12)
	maximum = 0.118 (at node 1)
Accepted flit rate average= 0.101406
	minimum = 0.09 (at node 2)
	maximum = 0.1155 (at node 4)
Injected packet length average = 1
Accepted packet length average = 1
Total in-flight flits = 44 (44 measured)
latency change    = 0.00741454
throughput change = 0.00893683
Draining all recorded packets ...
Draining remaining packets ...
Time taken is 3656 cycles
Class 0:
Packet latency average = 29.648
	minimum = 7
	maximum = 302
Network latency average = 26.1951
	minimum = 7
	maximum = 257
Slowest packet = 71710
Flit latency average = 26.1951
	minimum = 7
	maximum = 257
Slowest flit = 71710
Fragmentation average = 0
	minimum = 0
	maximum = 0
Injected packet rate average = 0.0965
	minimum = 0.07 (at node 15)
	maximum = 0.142 (at node 14)
Accepted packet rate average = 0.091625
	minimum = 0.072 (at node 0)
	maximum = 0.114 (at node 10)
Injected flit rate average = 0.0965
	minimum = 0.07 (at node 15)
	maximum = 0.142 (at node 14)
Accepted flit rate average= 0.091625
	minimum = 0.072 (at node 0)
	maximum = 0.114 (at node 10)
Injected packet length average = 1
Accepted packet length average = 1
Total in-flight flits = 40 (0 measured)
latency change    = 1
throughput change = 1
Class 0:
Packet latency average = 33.0613
	minimum = 7
	maximum = 343
Network latency average = 26.2244
	minimum = 7
	maximum = 257
Slowest packet = 71710
Flit latency average = 26.2244
	minimum = 7
	maximum = 257
Slowest flit = 71710
Fragmentation average = 0
	minimum = 0
	maximum = 0
Injected packet rate average = 0.0995
	minimum = 0.081 (at node 5)
	maximum = 0.118 (at node 14)
Accepted packet rate average = 0.0969375
	minimum = 0.078 (at node 0)
	maximum = 0.125 (at node 10)
Injected flit rate average = 0.0995
	minimum = 0.081 (at node 5)
	maximum = 0.118 (at node 14)
Accepted flit rate average= 0.0969375
	minimum = 0.078 (at node 0)
	maximum = 0.125 (at node 10)
Injected packet length average = 1
Accepted packet length average = 1
Total in-flight flits = 42 (0 measured)
latency change    = 0.10324
throughput change = 0.0548034
Class 0:
Packet latency average = 30.0453
	minimum = 7
	maximum = 244
Network latency average = 26.5881
	minimum = 7
	maximum = 209
Slowest packet = 73028
Flit latency average = 26.5881
	minimum = 7
	maximum = 209
Slowest flit = 73564
Fragmentation average = 0
	minimum = 0
	maximum = 0
Injected packet rate average = 0.097125
	minimum = 0.076 (at node 11)
	maximum = 0.118 (at node 0)
Accepted packet rate average = 0.0965
	minimum = 0.084 (at node 2)
	maximum = 0.112 (at node 1)
Injected flit rate average = 0.097125
	minimum = 0.076 (at node 11)
	maximum = 0.118 (at node 0)
Accepted flit rate average= 0.0965
	minimum = 0.084 (at node 2)
	maximum = 0.112 (at node 1)
Injected packet length average = 1
Accepted packet length average = 1
Total in-flight flits = 47 (0 measured)
latency change    = 0.100379
throughput change = 0.00453368
Warmed up ...Time used is 1500 cycles
Class 0:
Packet latency average = 22.2991
	minimum = 7
	maximum = 76
Network latency average = 22.2516
	minimum = 7
	maximum = 76
Slowest packet = 74555
Flit latency average = 22.9479
	minimum = 7
	maximum = 219
Slowest flit = 73572
Fragmentation average = 0
	minimum = 0
	maximum = 0
Injected packet rate average = 0.09875
	minimum = 0.062 (at node 4)
	maximum = 0.146 (at node 8)
Accepted packet rate average = 0.10075
	minimum = 0.08 (at node 14)
	maximum = 0.128 (at node 4)
Injected flit rate average = 0.09875
	minimum = 0.062 (at node 4)
	maximum = 0.146 (at node 8)
Accepted flit rate average= 0.10075
	minimum = 0.08 (at node 14)
	maximum = 0.128 (at node 4)
Injected packet length average = 1
Accepted packet length average = 1
Total in-flight flits = 30 (30 measured)
latency change    = 0.34738
throughput change = 0.0421836
Class 0:
Packet latency average = 22.6032
	minimum = 7
	maximum = 100
Network latency average = 22.5734
	minimum = 7
	maximum = 100
Slowest packet = 74606
Flit latency average = 22.9033
	minimum = 7
	maximum = 219
Slowest flit = 73572
Fragmentation average = 0
	minimum = 0
	maximum = 0
Injected packet rate average = 0.103625
	minimum = 0.089 (at node 5)
	maximum = 0.129 (at node 8)
Accepted packet rate average = 0.103438
	minimum = 0.086 (at node 9)
	maximum = 0.119 (at node 4)
Injected flit rate average = 0.103625
	minimum = 0.089 (at node 5)
	maximum = 0.129 (at node 8)
Accepted flit rate average= 0.103438
	minimum = 0.086 (at node 9)
	maximum = 0.119 (at node 4)
Injected packet length average = 1
Accepted packet length average = 1
Total in-flight flits = 49 (49 measured)
latency change    = 0.0134563
throughput change = 0.0259819
Class 0:
Packet latency average = 24.2007
	minimum = 7
	maximum = 147
Network latency average = 23.847
	minimum = 7
	maximum = 147
Slowest packet = 75698
Flit latency average = 24.0447
	minimum = 7
	maximum = 219
Slowest flit = 73572
Fragmentation average = 0
	minimum = 0
	maximum = 0
Injected packet rate average = 0.102125
	minimum = 0.0906667 (at node 5)
	maximum = 0.117333 (at node 8)
Accepted packet rate average = 0.102458
	minimum = 0.09 (at node 7)
	maximum = 0.122667 (at node 4)
Injected flit rate average = 0.102125
	minimum = 0.0906667 (at node 5)
	maximum = 0.117333 (at node 8)
Accepted flit rate average= 0.102458
	minimum = 0.09 (at node 7)
	maximum = 0.122667 (at node 4)
Injected packet length average = 1
Accepted packet length average = 1
Total in-flight flits = 38 (38 measured)
latency change    = 0.0660077
throughput change = 0.00955673
Class 0:
Packet latency average = 24.1072
	minimum = 7
	maximum = 147
Network latency average = 23.8259
	minimum = 7
	maximum = 147
Slowest packet = 75698
Flit latency average = 23.9768
	minimum = 7
	maximum = 219
Slowest flit = 73572
Fragmentation average = 0
	minimum = 0
	maximum = 0
Injected packet rate average = 0.100812
	minimum = 0.091 (at node 5)
	maximum = 0.1135 (at node 8)
Accepted packet rate average = 0.100906
	minimum = 0.093 (at node 1)
	maximum = 0.1185 (at node 4)
Injected flit rate average = 0.100812
	minimum = 0.091 (at node 5)
	maximum = 0.1135 (at node 8)
Accepted flit rate average= 0.100906
	minimum = 0.093 (at node 1)
	maximum = 0.1185 (at node 4)
Injected packet length average = 1
Accepted packet length average = 1
Total in-flight flits = 43 (43 measured)
latency change    = 0.00387843
throughput change = 0.0153814
Class 0:
[...]
	minimum = 0
	maximum = 0
Injected packet rate average = 0.10445
	minimum = 0.0952 (at node 9)
	maximum = 0.1136 (at node 1)
Accepted packet rate average = 0.104325
	minimum = 0.0948 (at node 9)
	maximum = 0.1172 (at node 11)
Injected flit rate average = 0.10445
	minimum = 0.0952 (at node 9)
	maximum = 0.1136 (at node 1)
Accepted flit rate average= 0.104325
	minimum = 0.0948 (at node 9)
	maximum = 0.1172 (at node 11)
Injected packet length average = 1
Accepted packet length average = 1
Total in-flight flits = 44 (44 measured)
latency change    = 0.0417328
throughput change = 0.00137791
Class 0:
Packet latency average = 32.6021
	minimum = 7
	maximum = 363
Network latency average = 26.8569
	minimum = 7
	maximum = 275
Slowest packet = 371027
Flit latency average = 27.0294
	minimum = 7
	maximum = 275
Slowest flit = 374124
Fragmentation average = 0
	minimum = 0
	maximum = 0
Injected packet rate average = 0.104375
	minimum = 0.0976667 (at node 8)
	maximum = 0.114667 (at node 14)
Accepted packet rate average = 0.104333
	minimum = 0.0936667 (at node 15)
	maximum = 0.117667 (at node 11)
Injected flit rate average = 0.104375
	minimum = 0.0976667 (at node 8)
	maximum = 0.114667 (at node 14)
Accepted flit rate average= 0.104333
	minimum = 0.0936667 (at node 15)
	maximum = 0.117667 (at node 11)
Injected packet length average = 1
Accepted packet length average = 1
Total in-flight flits = 41 (41 measured)
latency change    = 0.0360556
throughput change = 7.98722e-05
Draining all recorded packets ...
Draining remaining packets ...
Time taken is 4641 cycles
Class 0:
Packet latency average = 22.3054
	minimum = 7
	maximum = 84
Network latency average = 22.2345
	minimum = 7
	maximum = 84
Slowest packet = 376863
Flit latency average = 22.2345
	minimum = 7
	maximum = 84
Slowest flit = 376863
Fragmentation average = 0
	minimum = 0
	maximum = 0
Injected packet rate average = 0.104
	minimum = 0.074 (at node 3)
	maximum = 0.114 (at node 6)
Accepted packet rate average = 0.097
	minimum = 0.078 (at node 11)
	maximum = 0.124 (at node 5)
Injected flit rate average = 0.104
	minimum = 0.074 (at node 3)
	maximum = 0.114 (at node 6)
Accepted flit rate average= 0.097
	minimum = 0.078 (at node 11)
	maximum = 0.124 (at node 5)
Injected packet length average = 1
Accepted packet length average = 1
Total in-flight flits = 56 (0 measured)
latency change    = 1
throughput change = 1
Class 0:
Packet latency average = 23.6665
	minimum = 7
	maximum = 147
Network latency average = 23.5846
	minimum = 7
	maximum = 147
Slowest packet = 377613
Flit latency average = 23.5846
	minimum = 7
	maximum = 147
Slowest flit = 377613
Fragmentation average = 0
	minimum = 0
	maximum = 0
Injected packet rate average = 0.1045
	minimum = 0.09 (at node 7)
	maximum = 0.12 (at node 9)
Accepted packet rate average = 0.101562
	minimum = 0.085 (at node 11)
	maximum = 0.119 (at node 5)
Injected flit rate average = 0.1045
	minimum = 0.09 (at node 7)
	maximum = 0.12 (at node 9)
Accepted flit rate average= 0.101562
	minimum = 0.085 (at node 11)
	maximum = 0.119 (at node 5)
Injected packet length average = 1
Accepted packet length average = 1
Total in-flight flits = 49 (0 measured)
latency change    = 0.0575096
throughput change = 0.0449231
Class 0:
Packet latency average = 26.3372
	minimum = 7
	maximum = 185
Network latency average = 25.7816
	minimum = 7
	maximum = 185
Slowest packet = 378267
Flit latency average = 25.7816
	minimum = 7
	maximum = 185
Slowest flit = 378267
Fragmentation average = 0
	minimum = 0
	maximum = 0
Injected packet rate average = 0.097125
	minimum = 0.07 (at node 8)
	maximum = 0.124 (at node 5)
Accepted packet rate average = 0.097875
	minimum = 0.06 (at node 9)
	maximum = 0.13 (at node 6)
Injected flit rate average = 0.097125
	minimum = 0.07 (at node 8)
	maximum = 0.124 (at node 5)
Accepted flit rate average= 0.097875
	minimum = 0.06 (at node 9)
	maximum = 0.13 (at node 6)
Injected packet length average = 1
Accepted packet length average = 1
Total in-flight flits = 42 (0 measured)
latency change    = 0.101404
throughput change = 0.0376756
Warmed up ...Time used is 1500 cycles
Class 0:
Packet latency average = 34.8024
	minimum = 7
	maximum = 270
Network latency average = 27.2971
	minimum = 7
	maximum = 157
Slowest packet = 378672
Flit latency average = 28.9372
	minimum = 7
	maximum = 226
Slowest flit = 378435
Fragmentation average = 0
	minimum = 0
	maximum = 0
Injected packet rate average = 0.099375
	minimum = 0.086 (at node 11)
	maximum = 0.118 (at node 1)
Accepted packet rate average = 0.0995
	minimum = 0.084 (at node 14)
	maximum = 0.132 (at node 8)
Injected flit rate average = 0.099375
	minimum = 0.086 (at node 11)
	maximum = 0.118 (at node 1)
Accepted flit rate average= 0.0995
	minimum = 0.084 (at node 14)
	maximum = 0.132 (at node 8)
Injected packet length average = 1
Accepted packet length average = 1
Total in-flight flits = 42 (42 measured)
latency change    = 0.243237
throughput change = 0.0163317
Class 0:
Packet latency average = 36.3816
	minimum = 7
	maximum = 394
Network latency average = 27.0409
	minimum = 7
	maximum = 207
Slowest packet = 378672
Flit latency average = 27.8724
	minimum = 7
	maximum = 226
Slowest flit = 378435
Fragmentation average = 0
	minimum = 0
	maximum = 0
Injected packet rate average = 0.0976875
	minimum = 0.085 (at node 6)
	maximum = 0.112 (at node 7)
Accepted packet rate average = 0.0989375
	minimum = 0.086 (at node 1)
	maximum = 0.119 (at node 8)
Injected flit rate average = 0.0976875
	minimum = 0.085 (at node 6)
	maximum = 0.112 (at node 7)
Accepted flit rate average= 0.0989375
	minimum = 0.086 (at node 1)
	maximum = 0.119 (at node 8)
Injected packet length average = 1
Accepted packet length average = 1
Total in-flight flits = 21 (21 measured)
latency change    = 0.0434061
throughput change = 0.00568541
Class 0:
Packet latency average = 32.8996
	minimum = 7
	maximum = 394
Network latency average = 26.313
	minimum = 7
	maximum = 207
Slowest packet = 378672
Flit latency average = 26.8903
	minimum = 7
	maximum = 226
Slowest flit = 378435
Fragmentation average = 0
	minimum = 0
	maximum = 0
Injected packet rate average = 0.097375
	minimum = 0.0873333 (at node 6)
	maximum = 0.107333 (at node 15)
Accepted packet rate average = 0.0972083
	minimum = 0.0846667 (at node 15)
	maximum = 0.107333 (at node 8)
Injected flit rate average = 0.097375
	minimum = 0.0873333 (at node 6)
	maximum = 0.107333 (at node 15)
Accepted flit rate average= 0.0972083
	minimum = 0.0846667 (at node 15)
	maximum = 0.107333 (at node 8)
Injected packet length average = 1
Accepted packet length average = 1
Total in-flight flits = 45 (45 measured)
latency change    = 0.105836
throughput change = 0.0177883
Class 0:
Packet latency average = 29.9154
	minimum = 7
	maximum = 394
Network latency average = 25.0036
	minimum = 7
	maximum = 207
Slowest packet = 378672
Flit latency average = 25.4535
	minimum = 7
	maximum = 226
Slowest flit = 378435
Fragmentation average = 0
	minimum = 0
	maximum = 0
Injected packet rate average = 0.0970938
	minimum = 0.0865 (at node 6)
	maximum = 0.11 (at node 15)
Accepted packet rate average = 0.097375
	minimum = 0.084 (at node 15)
	maximum = 0.107 (at node 4)
Injected flit rate average = 0.0970938
	minimum = 0.0865 (at node 6)
	maximum = 0.11 (at node 15)
Accepted flit rate average= 0.097375
	minimum = 0.084 (at node 15)
	maximum = 0.107 (at node 4)
Injected packet length average = 1
Accepted packet length average = 1
Total in-flight flits = 32 (32 measured)
latency change    = 0.0997542
throughput change = 0.0017116
Class 0:
Packet latency average = 28.3687
	minimum = 7
	maximum = 394
Network latency average = 24.4643
	minimum = 7
	maximum = 207
Slowest packet = 378672
Flit latency average = 24.8285
	minimum = 7
	maximum = 226
Slowest flit = 378435
Fragmentation average = 0
	minimum = 0
	maximum = 0
Injected packet rate average = 0.0981
	minimum = 0.0912 (at node 6)
	maximum = 0.1124 (at node 15)
Accepted packet rate average = 0.0978
	minimum = 0.0872 (at node 15)
	maximum = 0.1056 (at node 4)
Injected flit rate average = 0.0981
	minimum = 0.0912 (at node 6)
	maximum = 0.1124 (at node 15)
Accepted flit rate average= 0.0978
	minimum = 0.0872 (at node 15)
	maximum = 0.1056 (at node 4)
Injected packet length average = 1
Accepted packet length average = 1
Total in-flight flits = 53 (53 measured)
latency change    = 0.0545208
throughput change = 0.0043456
Class 0:
Packet latency average = 28.003
	minimum = 7
	maximum = 394
Network latency average = 24.687
	minimum = 7
	maximum = 207
Slowest packet = 378672
Flit latency average = 24.9881
	minimum = 7
	maximum = 226
Slowest flit = 378435
Fragmentation average = 0
	minimum = 0
	maximum = 0
Injected packet rate average = 0.0981667
	minimum = 0.0913333 (at node 5)
	maximum = 0.108333 (at node 13)
Accepted packet rate average = 0.0979167
	minimum = 0.0863333 (at node 15)
	maximum = 0.104333 (at node 4)
Injected flit rate average = 0.0981667
	minimum = 0.0913333 (at node 5)
	maximum = 0.108333 (at node 13)
Accepted flit rate average= 0.0979167
	minimum = 0.0863333 (at node 15)
	maximum = 0.104333 (at node 4)
Injected packet length average = 1
Accepted packet length average = 1
Total in-flight flits = 55 (55 measured)
latency change    = 0.0130603
throughput change = 0.00119149
Class 0:
Packet latency average = 29.3916
	minimum = 7
	maximum = 394
Network latency average = 25.3797
	minimum = 7
	maximum = 279
Slowest packet = 378672
Flit latency average = 25.631
	minimum = 7
	maximum = 279
Slowest flit = 383154
Fragmentation average = 0
	minimum = 0
	maximum = 0
Injected packet rate average = 0.0987857
	minimum = 0.0942857 (at node 5)
	maximum = 0.107714 (at node 13)
Accepted packet rate average = 0.0984821
	minimum = 0.0865714 (at node 15)
	maximum = 0.106286 (at node 8)
Injected flit rate average = 0.0987857
	minimum = 0.0942857 (at node 5)
	maximum = 0.107714 (at node 13)
Accepted flit rate average= 0.0984821
	minimum = 0.0865714 (at node 15)
	maximum = 0.106286 (at node 8)
Injected packet length average = 1
Accepted packet length average = 1
Total in-flight flits = 60 (60 measured)
latency change    = 0.0472433
throughput change = 0.00574192
Draining all recorded packets ...
Draining remaining packets ...
Time taken is 5445 cycles
Class 0:
Packet latency average = 23.07
	minimum = 7
	maximum = 73
Network latency average = 23.0454
	minimum = 7
	maximum = 73
Slowest packet = 385363
Flit latency average = 23.0454
	minimum = 7
	maximum = 73
Slowest flit = 385363
Fragmentation average = 0
	minimum = 0
	maximum = 0
Injected packet rate average = 0.100375
	minimum = 0.086 (at node 0)
	maximum = 0.12 (at node 14)
Accepted packet rate average = 0.096375
	minimum = 0.072 (at node 3)
	maximum = 0.122 (at node 13)
Injected flit rate average = 0.100375
	minimum = 0.086 (at node 0)
	maximum = 0.12 (at node 14)
Accepted flit rate average= 0.096375
	minimum = 0.072 (at node 3)
	maximum = 0.122 (at node 13)
Injected packet length average = 1
Accepted packet length average = 1
Total in-flight flits = 32 (0 measured)
latency change    = 1
throughput change = 1
Class 0:
Packet latency average = 23.3855
	minimum = 7
	maximum = 96
Network latency average = 23.2864
	minimum = 7
	maximum = 96
Slowest packet = 386033
Flit latency average = 23.2864
	minimum = 7
	maximum = 96
Slowest flit = 386033
Fragmentation average = 0
	minimum = 0
	maximum = 0
Injected packet rate average = 0.0998125
	minimum = 0.085 (at node 2)
	maximum = 0.113 (at node 7)
Accepted packet rate average = 0.097125
	minimum = 0.078 (at node 3)
	maximum = 0.113 (at node 13)
Injected flit rate average = 0.0998125
	minimum = 0.085 (at node 2)
	maximum = 0.113 (at node 7)
Accepted flit rate average= 0.097125
	minimum = 0.078 (at node 3)
	maximum = 0.113 (at node 13)
Injected packet length average = 1
Accepted packet length average = 1
Total in-flight flits = 43 (0 measured)
latency change    = 0.0134878
throughput change = 0.00772201
Class 0:
Packet latency average = 25.979
	minimum = 7
	maximum = 175
Network latency average = 25.3795
	minimum = 7
	maximum = 152
Slowest packet = 386703
Flit latency average = 25.3795
	minimum = 7
	maximum = 152
Slowest flit = 386703
Fragmentation average = 0
	minimum = 0
	maximum = 0
Injected packet rate average = 0.10075
	minimum = 0.084 (at node 9)
	maximum = 0.126 (at node 3)
Accepted packet rate average = 0.101125
	minimum = 0.088 (at node 10)
	maximum = 0.124 (at node 14)
Injected flit rate average = 0.10075
	minimum = 0.084 (at node 9)
	maximum = 0.126 (at node 3)
Accepted flit rate average= 0.101125
	minimum = 0.088 (at node 10)
	maximum = 0.124 (at node 14)
Injected packet length average = 1
Accepted packet length average = 1
Total in-flight flits = 41 (0 measured)
latency change    = 0.0998318
throughput change = 0.039555
Warmed up ...Time used is 1500 cycles
Class 0:
Packet latency average = 26.9646
	minimum = 7
	maximum = 161
Network latency average = 24.8322
	minimum = 7
	maximum = 161
Slowest packet = 387746
Flit latency average = 26.0448
	minimum = 7
	maximum = 194
Slowest flit = 386997
Fragmentation average = 0
	minimum = 0
	maximum = 0
Injected packet rate average = 0.100875
	minimum = 0.082 (at node 13)
	maximum = 0.13 (at node 6)
Accepted packet rate average = 0.1005
	minimum = 0.08 (at node 14)
	maximum = 0.134 (at node 8)
Injected flit rate average = 0.100875
	minimum = 0.082 (at node 13)
	maximum = 0.13 (at node 6)
Accepted flit rate average= 0.1005
	minimum = 0.08 (at node 14)
	maximum = 0.134 (at node 8)
Injected packet length average = 1
Accepted packet length average = 1
Total in-flight flits = 45 (45 measured)
latency change    = 0.0365526
throughput change = 0.00621891
Class 0:
Packet latency average = 33.2123
	minimum = 7
	maximum = 356
Network latency average = 26.8283
	minimum = 7
	maximum = 339
Slowest packet = 387836
Flit latency average = 27.3982
	minimum = 7
	maximum = 339
Slowest flit = 387836
Fragmentation average = 0
	minimum = 0
	maximum = 0
Injected packet rate average = 0.0980625
	minimum = 0.086 (at node 3)
	maximum = 0.121 (at node 6)
Accepted packet rate average = 0.0979375
	minimum = 0.083 (at node 6)
	maximum = 0.111 (at node 5)
Injected flit rate average = 0.0980625
	minimum = 0.086 (at node 3)
	maximum = 0.121 (at node 6)
Accepted flit rate average= 0.0979375
	minimum = 0.083 (at node 6)
	maximum = 0.111 (at node 5)
Injected packet length average = 1
Accepted packet length average = 1
Total in-flight flits = 43 (43 measured)
latency change    = 0.188114
throughput change = 0.0261646
Class 0:
Packet latency average = 32.0172
	minimum = 7
	maximum = 356
Network latency average = 26.2174
	minimum = 7
	maximum = 339
Slowest packet = 387836
Flit latency average = 26.5956
	minimum = 7
	maximum = 339
Slowest flit = 387836
Fragmentation average = 0
	minimum = 0
	maximum = 0
Injected packet rate average = 0.101292
	minimum = 0.0913333 (at node 14)
	maximum = 0.111333 (at node 6)
Accepted packet rate average = 0.101167
	minimum = 0.0886667 (at node 6)
	maximum = 0.112667 (at node 5)
Injected flit rate average = 0.101292
	minimum = 0.0913333 (at node 14)
	maximum = 0.111333 (at node 6)
Accepted flit rate average= 0.101167
	minimum = 0.0886667 (at node 6)
	maximum = 0.112667 (at node 5)
Injected packet length average = 1
Accepted packet length average = 1
Total in-flight flits = 43 (43 measured)
latency change    = 0.0373282
throughput change = 0.0319193
Class 0:
Packet latency average = 29.7425
	minimum = 7
	maximum = 356
Network latency average = 25.3865
	minimum = 7
	maximum = 339
Slowest packet = 387836
Flit latency average = 25.6821
	minimum = 7
	maximum = 339
Slowest flit = 387836
Fragmentation average = 0
	minimum = 0
	maximum = 0
Injected packet rate average = 0.100281
	minimum = 0.0935 (at node 14)
	maximum = 0.1055 (at node 4)
Accepted packet rate average = 0.100656
	minimum = 0.091 (at node 6)
	maximum = 0.1105 (at node 5)
Injected flit rate average = 0.100281
	minimum = 0.0935 (at node 14)
	maximum = 0.1055 (at node 4)
Accepted flit rate average= 0.100656
	minimum = 0.091 (at node 6)
	maximum = 0.1105 (at node 5)
Injected packet length average = 1
Accepted packet length average = 1
Total in-flight flits = 28 (28 measured)
latency change    = 0.0764807
throughput change = 0.00507089
Class 0:
Packet latency average = 28.9293
	minimum = 7
	maximum = 356
Network latency average = 25.378
	minimum = 7
	maximum = 339
Slowest packet = 387836
Flit latency average = 25.6152
	minimum = 7
	maximum = 339
Slowest flit = 387836
Fragmentation average = 0
	minimum = 0
	maximum = 0
Injected packet rate average = 0.100575
	minimum = 0.0932 (at node 7)
	maximum = 0.1152 (at node 4)
Accepted packet rate average = 0.100375
	minimum = 0.09 (at node 6)
	maximum = 0.11 (at node 5)
Injected flit rate average = 0.100575
	minimum = 0.0932 (at node 7)
	maximum = 0.1152 (at node 4)
Accepted flit rate average= 0.100375
	minimum = 0.09 (at node 6)
	maximum = 0.11 (at node 5)
Injected packet length average = 1
Accepted packet length average = 1
Total in-flight flits = 49 (49 measured)
latency change    = 0.0281086
throughput change = 0.00280199
Class 0:
Packet latency average = 29.9474
	minimum = 7
	maximum = 372
Network latency average = 25.9994
	minimum = 7
	maximum = 339
Slowest packet = 387836
Flit latency average = 26.1929
	minimum = 7
	maximum = 339
Slowest flit = 387836
Fragmentation average = 0
	minimum = 0
	maximum = 0
Injected packet rate average = 0.1
	minimum = 0.0926667 (at node 12)
	maximum = 0.115667 (at node 4)
Accepted packet rate average = 0.0997917
	minimum = 0.0906667 (at node 6)
	maximum = 0.105333 (at node 5)
Injected flit rate average = 0.1
	minimum = 0.0926667 (at node 12)
	maximum = 0.115667 (at node 4)
Accepted flit rate average= 0.0997917
	minimum = 0.0906667 (at node 6)
	maximum = 0.105333 (at node 5)
Injected packet length average = 1
Accepted packet length average = 1
Total in-flight flits = 51 (51 measured)
latency change    = 0.0339952
throughput change = 0.00584551
Class 0:
Packet latency average = 31.4701
	minimum = 7
	maximum = 516
Network latency average = 26.4901
	minimum = 7
	maximum = 339
Slowest packet = 387836
Flit latency average = 26.6529
	minimum = 7
	maximum = 339
Slowest flit = 387836
Fragmentation average = 0
	minimum = 0
	maximum = 0
Injected packet rate average = 0.0995714
	minimum = 0.0868571 (at node 12)
	maximum = 0.112286 (at node 4)
Accepted packet rate average = 0.0995
	minimum = 0.094 (at node 13)
	maximum = 0.105429 (at node 5)
Injected flit rate average = 0.0995714
	minimum = 0.0868571 (at node 12)
	maximum = 0.112286 (at node 4)
Accepted flit rate average= 0.0995
	minimum = 0.094 (at node 13)
	maximum = 0.105429 (at node 5)
Injected packet length average = 1
Accepted packet length average = 1
Total in-flight flits = 45 (45 measured)
latency change    = 0.0483863
throughput change = 0.00293132
Draining all recorded packets ...
Draining remaining packets ...
Time taken is 5529 cycles
====== Overall Traffic Statistics ======
====== Traffic class 0 ======
Packet latency average = 34.3783 (50 samples)
	minimum = 7 (50 samples)
	maximum = 479.42 (50 samples)
Network latency average = 26.2169 (50 samples)
	minimum = 7 (50 samples)
	maximum = 287.84 (50 samples)
Flit latency average = 26.236 (50 samples)
	minimum = 7 (50 samples)
	maximum = 292.82 (50 samples)
Fragmentation average = 0 (50 samples)
	minimum = 0 (50 samples)
	maximum = 0 (50 samples)
Injected packet rate average = 0.100128 (50 samples)
	minimum = 0.089261 (50 samples)
	maximum = 0.110158 (50 samples)
Accepted packet rate average = 0.100102 (50 samples)
	minimum = 0.0898729 (50 samples)
	maximum = 0.110069 (50 samples)
Injected flit rate average = 0.100128 (50 samples)
	minimum = 0.089261 (50 samples)
	maximum = 0.110158 (50 samples)
Accepted flit rate average = 0.100102 (50 samples)
	minimum = 0.0898729 (50 samples)
	maximum = 0.110069 (50 samples)
Injected packet size average = 1 (50 samples)
Accepted packet size average = 1 (50 samples)
Hops average = 3.52837 (50 samples)
Total run time 4.48381
