BEGIN Configuration File: /tmp/tmpxl18ps4w.cfg
topology = mesh;
k = 4;
n = 2;
routing_function = planar_adapt;
num_vcs = 4;
vc_buf_size = 4;
wait_for_tail_credit = 1;
vc_allocator = islip;
sw_allocator = islip;
alloc_iters = 1;
credit_delay = 2;
routing_delay = 1;
vc_alloc_delay = 1;
sw_alloc_delay = 1;
input_speedup = 2;
output_speedup = 1;
internal_speedup = 1.0;
traffic = uniform;
packet_size = 1;
sim_type = latency;
injection_rate = 0.05;
warmup_periods = 3;
sample_period = 500;
sim_count = 50;
seed = 2;
link_failures = 7;
fail_seed = 101;

END Configuration File: /tmp/tmpxl18ps4w.cfg
failure at node 14, channel 0 (1/7)
failure at node 12, channel 0 (2/7)
failure at node 4, channel 2 (3/7)
failure at node 11, channel 1 (4/7)
failure at node 5, channel 3 (5/7)
failure at node 9, channel 0 (6/7)
failure at node 8, channel 3 (7/7)
Class 0:
Packet latency average = 25.1328
	minimum = 7
	maximum = 94
Network latency average = 25.1328
	minimum = 7
	maximum = 94
Slowest packet = 267
Flit latency average = 25.1328
	minimum = 7
	maximum = 94
Slowest flit = 267
Fragmentation average = 0
	minimum = 0
	maximum = 0
Injected packet rate average = 0.048875
	minimum = 0.03 (at node 5)
	maximum = 0.068 (at node 10)
Accepted packet rate average = 0.046125
	minimum = 0.03 (at node 2)
	maximum = 0.064 (at node 7)
Injected flit rate average = 0.048875
	minimum = 0.03 (at node 5)
	maximum = 0.068 (at node 10)
Accepted flit rate average= 0.046125
	minimum = 0.03 (at node 2)
	maximum = 0.064 (at node 7)
Injected packet length average = 1
Accepted packet length average = 1
Total in-flight flits = 22 (0 measured)
latency change    = 1
throughput change = 1
Class 0:
Packet latency average = 24.594
	minimum = 7
	maximum = 94
Network latency average = 24.594
	minimum = 7
	maximum = 94
Slowest packet = 267
Flit latency average = 24.594
	minimum = 7
	maximum = 94
Slowest flit = 267
Fragmentation average = 0
	minimum = 0
	maximum = 0
Injected packet rate average = 0.04975
	minimum = 0.035 (at node 8)
	maximum = 0.064 (at node 10)
Accepted packet rate average = 0.0481875
	minimum = 0.035 (at node 3)
	maximum = 0.058 (at node 7)
Injected flit rate average = 0.04975
	minimum = 0.035 (at node 8)
	maximum = 0.064 (at node 10)
Accepted flit rate average= 0.0481875
	minimum = 0.035 (at node 3)
	maximum = 0.058 (at node 7)
Injected packet length average = 1
Accepted packet length average = 1
Total in-flight flits = 25 (0 measured)
latency change    = 0.021906
throughput change = 0.0428016
Class 0:
Packet latency average = 22.938
	minimum = 7
	maximum = 56
Network latency average = 22.938
	minimum = 7
	maximum = 56
Slowest packet = 794
Flit latency average = 22.938
	minimum = 7
	maximum = 56
Slowest flit = 794
Fragmentation average = 0
	minimum = 0
	maximum = 0
Injected packet rate average = 0.04475
	minimum = 0.026 (at node 1)
	maximum = 0.06 (at node 10)
Accepted packet rate average = 0.046375
	minimum = 0.04 (at node 1)
	maximum = 0.056 (at node 0)
Injected flit rate average = 0.04475
	minimum = 0.026 (at node 1)
	maximum = 0.06 (at node 10)
Accepted flit rate average= 0.046375
	minimum = 0.04 (at node 1)
	maximum = 0.056 (at node 0)
Injected packet length average = 1
Accepted packet length average = 1
Total in-flight flits = 12 (0 measured)
latency change    = 0.0721958
throughput change = 0.0390836
Warmed up ...Time used is 1500 cycles
Class 0:
Packet latency average = 23.3325
	minimum = 7
	maximum = 89
Network latency average = 23.3325
	minimum = 7
	maximum = 89
Slowest packet = 1481
Flit latency average = 23.2123
	minimum = 7
	maximum = 89
Slowest flit = 1481
Fragmentation average = 0
	minimum = 0
	maximum = 0
Injected packet rate average = 0.05375
	minimum = 0.038 (at node 15)
	maximum = 0.08 (at node 10)
Accepted packet rate average = 0.053
	minimum = 0.044 (at node 4)
	maximum = 0.064 (at node 6)
Injected flit rate average = 0.05375
	minimum = 0.038 (at node 15)
	maximum = 0.08 (at node 10)
Accepted flit rate average= 0.053
	minimum = 0.044 (at node 4)
	maximum = 0.064 (at node 6)
Injected packet length average = 1
Accepted packet length average = 1
Total in-flight flits = 18 (18 measured)
latency change    = 0.0169085
throughput change = 0.125
Class 0:
Packet latency average = 23.0344
	minimum = 7
	maximum = 89
Network latency average = 23.0344
	minimum = 7
	maximum = 89
Slowest packet = 1481
Flit latency average = 22.9749
	minimum = 7
	maximum = 89
Slowest flit = 1481
Fragmentation average = 0
	minimum = 0
	maximum = 0
Injected packet rate average = 0.050125
	minimum = 0.032 (at node 15)
	maximum = 0.07 (at node 10)
Accepted packet rate average = 0.04975
	minimum = 0.036 (at node 7)
	maximum = 0.063 (at node 2)
Injected flit rate average = 0.050125
	minimum = 0.032 (at node 15)
	maximum = 0.07 (at node 10)
Accepted flit rate average= 0.04975
	minimum = 0.036 (at node 7)
	maximum = 0.063 (at node 2)
Injected packet length average = 1
Accepted packet length average = 1
Total in-flight flits = 18 (18 measured)
latency change    = 0.0129409
throughput change = 0.0653266
Class 0:
Packet latency average = 23.4164
	minimum = 7
	maximum = 89
Network latency average = 23.4164
	minimum = 7
	maximum = 89
Slowest packet = 1481
Flit latency average = 23.3725
	minimum = 7
	maximum = 89
Slowest flit = 1481
Fragmentation average = 0
	minimum = 0
	maximum = 0
Injected packet rate average = 0.049625
	minimum = 0.0393333 (at node 15)
	maximum = 0.066 (at node 10)
Accepted packet rate average = 0.0493333
	minimum = 0.0386667 (at node 7)
	maximum = 0.064 (at node 6)
Injected flit rate average = 0.049625
	minimum = 0.0393333 (at node 15)
	maximum = 0.066 (at node 10)
Accepted flit rate average= 0.0493333
	minimum = 0.0386667 (at node 7)
	maximum = 0.064 (at node 6)
Injected packet length average = 1
Accepted packet length average = 1
Total in-flight flits = 19 (19 measured)
latency change    = 0.016311
throughput change = 0.00844595
Class 0:
Packet latency average = 23.9787
	minimum = 7
	maximum = 112
Network latency average = 23.9781
	minimum = 7
	maximum = 112
Slowest packet = 2606
Flit latency average = 23.9416
	minimum = 7
	maximum = 112
Slowest flit = 2606
Fragmentation average = 0
	minimum = 0
	maximum = 0
Injected packet rate average = 0.0506562
	minimum = 0.0425 (at node 1)
	maximum = 0.0695 (at node 10)
Accepted packet rate average = 0.0502812
	minimum = 0.045 (at node 7)
	maximum = 0.0605 (at node 6)
Injected flit rate average = 0.0506562
	minimum = 0.0425 (at node 1)
	maximum = 0.0695 (at node 10)
Accepted flit rate average= 0.0502812
	minimum = 0.045 (at node 7)
	maximum = 0.0605 (at node 6)
Injected packet length average = 1
Accepted packet length average = 1
Total in-flight flits = 24 (24 measured)
latency change    = 0.0234511
throughput change = 0.0188523
Class 0:
Packet latency average = 24.7637
	minimum = 7
	maximum = 112
Network latency average = 24.7608
	minimum = 7
	maximum = 112
Slowest packet = 2606
Flit latency average = 24.7273
	minimum = 7
	maximum = 112
Slowest flit = 2606
Fragmentation average = 0
	minimum = 0
	maximum = 0
Injected packet rate average = 0.051225
	minimum = 0.0408 (at node 1)
	maximum = 0.0648 (at node 10)
Accepted packet rate average = 0.050875
	minimum = 0.0444 (at node 14)
	maximum = 0.0596 (at node 6)
Injected flit rate average = 0.051225
	minimum = 0.0408 (at node 1)
	maximum = 0.0648 (at node 10)
Accepted flit rate average= 0.050875
	minimum = 0.0444 (at node 14)
	maximum = 0.0596 (at node 6)
Injected packet length average = 1
Accepted packet length average = 1
Total in-flight flits = 26 (26 measured)
latency change    = 0.0316999
throughput change = 0.0116708
Draining all recorded packets ...
Draining remaining packets ...
Time taken is 4109 cycles
Class 0:
Packet latency average = 24.6227
	minimum = 7
	maximum = 91
Network latency average = 24.615
	minimum = 7
	maximum = 91
Slowest packet = 3309
Flit latency average = 24.615
	minimum = 7
	maximum = 91
Slowest flit = 3309
Fragmentation average = 0
	minimum = 0
	maximum = 0
Injected packet rate average = 0.05075
	minimum = 0.038 (at node 4)
	maximum = 0.062 (at node 0)
Accepted packet rate average = 0.048375
	minimum = 0.03 (at node 9)
	maximum = 0.07 (at node 13)
Injected flit rate average = 0.05075
	minimum = 0.038 (at node 4)
	maximum = 0.062 (at node 0)
Accepted flit rate average= 0.048375
	minimum = 0.03 (at node 9)
	maximum = 0.07 (at node 13)
Injected packet length average = 1
Accepted packet length average = 1
Total in-flight flits = 19 (0 measured)
latency change    = 1
throughput change = 1
Class 0:
Packet latency average = 25.1854
	minimum = 7
	maximum = 109
Network latency average = 25.1817
	minimum = 7
	maximum = 109
Slowest packet = 3944
Flit latency average = 25.1817
	minimum = 7
	maximum = 109
Slowest flit = 3944
Fragmentation average = 0
	minimum = 0
	maximum = 0
Injected packet rate average = 0.052125
	minimum = 0.044 (at node 4)
	maximum = 0.065 (at node 8)
Accepted packet rate average = 0.0505625
	minimum = 0.035 (at node 8)
	maximum = 0.069 (at node 7)
Injected flit rate average = 0.052125
	minimum = 0.044 (at node 4)
	maximum = 0.065 (at node 8)
Accepted flit rate average= 0.0505625
	minimum = 0.035 (at node 8)
	maximum = 0.069 (at node 7)
Injected packet length average = 1
Accepted packet length average = 1
Total in-flight flits = 25 (0 measured)
latency change    = 0.0223413
throughput change = 0.0432633
Class 0:
Packet latency average = 26.0839
	minimum = 7
	maximum = 85
Network latency average = 26.0726
	minimum = 7
	maximum = 85
Slowest packet = 4206
Flit latency average = 26.0726
	minimum = 7
	maximum = 85
Slowest flit = 4206
Fragmentation average = 0
	minimum = 0
	maximum = 0
Injected packet rate average = 0.054
	minimum = 0.03 (at node 11)
	maximum = 0.072 (at node 7)
Accepted packet rate average = 0.055125
	minimum = 0.044 (at node 1)
	maximum = 0.072 (at node 0)
Injected flit rate average = 0.054
	minimum = 0.03 (at node 11)
	maximum = 0.072 (at node 7)
Accepted flit rate average= 0.055125
	minimum = 0.044 (at node 1)
	maximum = 0.072 (at node 0)
Injected packet length average = 1
Accepted packet length average = 1
Total in-flight flits = 16 (0 measured)
latency change    = 0.034446
throughput change = 0.0827664
Warmed up ...Time used is 1500 cycles
Class 0:
Packet latency average = 22.3865
	minimum = 7
	maximum = 68
Network latency average = 22.3865
	minimum = 7
	maximum = 68
Slowest packet = 4603
Flit latency average = 22.6813
	minimum = 7
	maximum = 68
Slowest flit = 4603
Fragmentation average = 0
	minimum = 0
	maximum = 0
Injected packet rate average = 0.048625
	minimum = 0.036 (at node 2)
	maximum = 0.066 (at node 13)
Accepted packet rate average = 0.04825
	minimum = 0.032 (at node 12)
	maximum = 0.064 (at node 10)
Injected flit rate average = 0.048625
	minimum = 0.036 (at node 2)
	maximum = 0.066 (at node 13)
Accepted flit rate average= 0.04825
	minimum = 0.032 (at node 12)
	maximum = 0.064 (at node 10)
Injected packet length average = 1
Accepted packet length average = 1
Total in-flight flits = 19 (19 measured)
latency change    = 0.165163
throughput change = 0.142487
Class 0:
Packet latency average = 23.2585
	minimum = 7
	maximum = 97
Network latency average = 23.2497
	minimum = 7
	maximum = 97
Slowest packet = 5161
Flit latency average = 23.3733
	minimum = 7
	maximum = 97
Slowest flit = 5161
Fragmentation average = 0
	minimum = 0
	maximum = 0
Injected packet rate average = 0.0503125
	minimum = 0.043 (at node 2)
	maximum = 0.062 (at node 5)
Accepted packet rate average = 0.0505625
	minimum = 0.034 (at node 14)
	maximum = 0.066 (at node 10)
Injected flit rate average = 0.0503125
	minimum = 0.043 (at node 2)
	maximum = 0.062 (at node 5)
Accepted flit rate average= 0.0505625
	minimum = 0.034 (at node 14)
	maximum = 0.066 (at node 10)
Injected packet length average = 1
Accepted packet length average = 1
Total in-flight flits = 12 (12 measured)
latency change    = 0.0374927
throughput change = 0.0457355
Class 0:
Packet latency average = 24.1914
	minimum = 7
	maximum = 125
Network latency average = 24.1853
	minimum = 7
	maximum = 125
Slowest packet = 5452
Flit latency average = 24.2577
	minimum = 7
	maximum = 125
Slowest flit = 5452
Fragmentation average = 0
	minimum = 0
	maximum = 0
Injected packet rate average = 0.0498333
	minimum = 0.044 (at node 2)
	maximum = 0.056 (at node 3)
Accepted packet rate average = 0.049
	minimum = 0.0333333 (at node 14)
	maximum = 0.0553333 (at node 10)
Injected flit rate average = 0.0498333
	minimum = 0.044 (at node 2)
	maximum = 0.056 (at node 3)
Accepted flit rate average= 0.049
	minimum = 0.0333333 (at node 14)
	maximum = 0.0553333 (at node 10)
Injected packet length average = 1
Accepted packet length average = 1
Total in-flight flits = 37 (37 measured)
latency change    = 0.038562
throughput change = 0.0318878
Class 0:
Packet latency average = 24.6515
	minimum = 7
	maximum = 125
Network latency average = 24.6413
	minimum = 7
	maximum = 125
Slowest packet = 5452
Flit latency average = 24.6901
	minimum = 7
	maximum = 125
Slowest flit = 5452
Fragmentation average = 0
	minimum = 0
	maximum = 0
Injected packet rate average = 0.0499687
	minimum = 0.044 (at node 11)
	maximum = 0.06 (at node 5)
Accepted packet rate average = 0.0498125
	minimum = 0.0395 (at node 14)
	maximum = 0.0565 (at node 3)
Injected flit rate average = 0.0499687
	minimum = 0.044 (at node 11)
	maximum = 0.06 (at node 5)
Accepted flit rate average= 0.0498125
	minimum = 0.0395 (at node 14)
	maximum = 0.0565 (at node 3)
Injected packet length average = 1
Accepted packet length average = 1
Total in-flight flits = 21 (21 measured)
latency change    = 0.0186633
throughput change = 0.0163112
Draining all recorded packets ...
Draining remaining packets ...
Time taken is 3575 cycles
Class 0:
Packet latency average = 24.3476
	minimum = 7
	maximum = 74
Network latency average = 24.3476
	minimum = 7
	maximum = 74
Slowest packet = 6360
Flit latency average = 24.3476
	minimum = 7
	maximum = 74
Slowest flit = 6360
Fragmentation average = 0
	minimum = 0
	maximum = 0
Injected packet rate average = 0.049125
	minimum = 0.024 (at node 9)
	maximum = 0.076 (at node 4)
Accepted packet rate average = 0.04675
	minimum = 0.03 (at node 7)
	maximum = 0.056 (at node 4)
Injected flit rate average = 0.049125
	minimum = 0.024 (at node 9)
	maximum = 0.076 (at node 4)
Accepted flit rate average= 0.04675
	minimum = 0.03 (at node 7)
	maximum = 0.056 (at node 4)
Injected packet length average = 1
Accepted packet length average = 1
Total in-flight flits = 19 (0 measured)
latency change    = 1
throughput change = 1
Class 0:
Packet latency average = 23.7253
	minimum = 7
	maximum = 74
Network latency average = 23.7253
	minimum = 7
	maximum = 74
Slowest packet = 6360
Flit latency average = 23.7253
	minimum = 7
	maximum = 74
Slowest flit = 6360
Fragmentation average = 0
	minimum = 0
	maximum = 0
Injected packet rate average = 0.049375
	minimum = 0.035 (at node 9)
	maximum = 0.061 (at node 0)
Accepted packet rate average = 0.048
	minimum = 0.035 (at node 1)
	maximum = 0.064 (at node 14)
Injected flit rate average = 0.049375
	minimum = 0.035 (at node 9)
	maximum = 0.061 (at node 0)
Accepted flit rate average= 0.048
	minimum = 0.035 (at node 1)
	maximum = 0.064 (at node 14)
Injected packet length average = 1
Accepted packet length average = 1
Total in-flight flits = 22 (0 measured)
latency change    = 0.0262308
throughput change = 0.0260417
Class 0:
Packet latency average = 24.1712
	minimum = 7
	maximum = 82
Network latency average = 24.1712
	minimum = 7
	maximum = 82
Slowest packet = 7259
Flit latency average = 24.1712
	minimum = 7
	maximum = 82
Slowest flit = 7259
Fragmentation average = 0
	minimum = 0
	maximum = 0
Injected packet rate average = 0.0495
	minimum = 0.032 (at node 9)
	maximum = 0.068 (at node 3)
Accepted packet rate average = 0.050375
	minimum = 0.036 (at node 7)
	maximum = 0.066 (at node 10)
Injected flit rate average = 0.0495
	minimum = 0.032 (at node 9)
	maximum = 0.068 (at node 3)
Accepted flit rate average= 0.050375
	minimum = 0.036 (at node 7)
	maximum = 0.066 (at node 10)
Injected packet length average = 1
Accepted packet length average = 1
Total in-flight flits = 15 (0 measured)
latency change    = 0.0184499
throughput change = 0.0471464
Warmed up ...Time used is 1500 cycles
Class 0:
Packet latency average = 23.4227
	minimum = 7
	maximum = 77
Network latency average = 23.4227
	minimum = 7
	maximum = 77
Slowest packet = 7493
Flit latency average = 23.7568
	minimum = 7
	maximum = 77
Slowest flit = 7493
Fragmentation average = 0
	minimum = 0
	maximum = 0
Injected packet rate average = 0.050875
	minimum = 0.038 (at node 2)
	maximum = 0.066 (at node 9)
Accepted packet rate average = 0.050375
	minimum = 0.032 (at node 6)
	maximum = 0.072 (at node 2)
Injected flit rate average = 0.050875
	minimum = 0.038 (at node 2)
	maximum = 0.066 (at node 9)
Accepted flit rate average= 0.050375
	minimum = 0.032 (at node 6)
	maximum = 0.072 (at node 2)
Injected packet length average = 1
Accepted packet length average = 1
Total in-flight flits = 19 (19 measured)
latency change    = 0.0319577
throughput change = 0
Class 0:
Packet latency average = 24.1565
	minimum = 7
	maximum = 81
Network latency average = 24.1565
	minimum = 7
	maximum = 81
Slowest packet = 7764
Flit latency average = 24.3109
	minimum = 7
	maximum = 81
Slowest flit = 7764
Fragmentation average = 0
	minimum = 0
	maximum = 0
Injected packet rate average = 0.0503125
	minimum = 0.038 (at node 2)
	maximum = 0.066 (at node 14)
Accepted packet rate average = 0.0500625
	minimum = 0.04 (at node 13)
	maximum = 0.066 (at node 2)
Injected flit rate average = 0.0503125
	minimum = 0.038 (at node 2)
	maximum = 0.066 (at node 14)
Accepted flit rate average= 0.0500625
	minimum = 0.04 (at node 13)
	maximum = 0.066 (at node 2)
Injected packet length average = 1
Accepted packet length average = 1
Total in-flight flits = 19 (19 measured)
latency change    = 0.0303773
throughput change = 0.0062422
Class 0:
Packet latency average = 24.9605
	minimum = 7
	maximum = 106
Network latency average = 24.9605
	minimum = 7
	maximum = 106
Slowest packet = 8302
Flit latency average = 25.0512
	minimum = 7
	maximum = 106
Slowest flit = 8302
Fragmentation average = 0
	minimum = 0
	maximum = 0
Injected packet rate average = 0.05175
	minimum = 0.0413333 (at node 5)
	maximum = 0.0633333 (at node 0)
Accepted packet rate average = 0.0512917
	minimum = 0.0413333 (at node 6)
	maximum = 0.0626667 (at node 8)
Injected flit rate average = 0.05175
	minimum = 0.0413333 (at node 5)
	maximum = 0.0633333 (at node 0)
Accepted flit rate average= 0.0512917
	minimum = 0.0413333 (at node 6)
	maximum = 0.0626667 (at node 8)
Injected packet length average = 1
Accepted packet length average = 1
Total in-flight flits = 26 (26 measured)
latency change    = 0.0322124
throughput change = 0.0239643
Draining all recorded packets ...
Draining remaining packets ...
Time taken is 3108 cycles
Class 0:
Packet latency average = 24.6138
	minimum = 7
	maximum = 85
Network latency average = 24.6138
	minimum = 7
	maximum = 85
Slowest packet = 8892
Flit latency average = 24.6138
	minimum = 7
	maximum = 85
Slowest flit = 8892
Fragmentation average = 0
	minimum = 0
	maximum = 0
Injected packet rate average = 0.051875
	minimum = 0.032 (at node 0)
	maximum = 0.07 (at node 10)
Accepted packet rate average = 0.048875
	minimum = 0.038 (at node 0)
	maximum = 0.062 (at node 9)
Injected flit rate average = 0.051875
	minimum = 0.032 (at node 0)
	maximum = 0.07 (at node 10)
Accepted flit rate average= 0.048875
	minimum = 0.038 (at node 0)
	maximum = 0.062 (at node 9)
Injected packet length average = 1
Accepted packet length average = 1
Total in-flight flits = 24 (0 measured)
latency change    = 1
throughput change = 1
Class 0:
Packet latency average = 24.929
	minimum = 7
	maximum = 111
Network latency average = 24.929
	minimum = 7
	maximum = 111
Slowest packet = 8966
Flit latency average = 24.929
	minimum = 7
	maximum = 111
Slowest flit = 8966
Fragmentation average = 0
	minimum = 0
	maximum = 0
Injected packet rate average = 0.0504375
	minimum = 0.045 (at node 0)
	maximum = 0.059 (at node 13)
Accepted packet rate average = 0.0493125
	minimum = 0.042 (at node 0)
	maximum = 0.06 (at node 1)
Injected flit rate average = 0.0504375
	minimum = 0.045 (at node 0)
	maximum = 0.059 (at node 13)
Accepted flit rate average= 0.0493125
	minimum = 0.042 (at node 0)
	maximum = 0.06 (at node 1)
Injected packet length average = 1
Accepted packet length average = 1
Total in-flight flits = 18 (0 measured)
latency change    = 0.0126444
throughput change = 0.00887199
Class 0:
Packet latency average = 23.9876
	minimum = 7
	maximum = 104
Network latency average = 23.9876
	minimum = 7
	maximum = 104
Slowest packet = 9516
Flit latency average = 23.9876
	minimum = 7
	maximum = 104
Slowest flit = 9516
Fragmentation average = 0
	minimum = 0
	maximum = 0
Injected packet rate average = 0.051
	minimum = 0.036 (at node 4)
	maximum = 0.062 (at node 7)
Accepted packet rate average = 0.0505
	minimum = 0.034 (at node 0)
	maximum = 0.074 (at node 8)
Injected flit rate average = 0.051
	minimum = 0.036 (at node 4)
	maximum = 0.062 (at node 7)
Accepted flit rate average= 0.0505
	minimum = 0.034 (at node 0)
	maximum = 0.074 (at node 8)
Injected packet length average = 1
Accepted packet length average = 1
Total in-flight flits = 22 (0 measured)
latency change    = 0.0392453
throughput change = 0.0235149
Warmed up ...Time used is 1500 cycles
Class 0:
Packet latency average = 23.3909
	minimum = 7
	maximum = 76
Network latency average = 23.3909
	minimum = 7
	maximum = 76
Slowest packet = 10008
Flit latency average = 23.7493
	minimum = 7
	maximum = 76
Slowest flit = 10008
Fragmentation average = 0
	minimum = 0
	maximum = 0
Injected packet rate average = 0.046625
	minimum = 0.032 (at node 1)
	maximum = 0.06 (at node 15)
Accepted packet rate average = 0.046875
	minimum = 0.03 (at node 0)
	maximum = 0.062 (at node 14)
Injected flit rate average = 0.046625
	minimum = 0.032 (at node 1)
	maximum = 0.06 (at node 15)
Accepted flit rate average= 0.046875
	minimum = 0.03 (at node 0)
	maximum = 0.062 (at node 14)
Injected packet length average = 1
Accepted packet length average = 1
Total in-flight flits = 20 (20 measured)
latency change    = 0.0255094
throughput change = 0.0773333
Class 0:
Packet latency average = 24.8438
	minimum = 7
	maximum = 99
Network latency average = 24.8438
	minimum = 7
	maximum = 99
Slowest packet = 10392
Flit latency average = 24.9767
	minimum = 7
	maximum = 99
Slowest flit = 10392
Fragmentation average = 0
	minimum = 0
	maximum = 0
Injected packet rate average = 0.0484375
	minimum = 0.038 (at node 1)
	maximum = 0.062 (at node 15)
Accepted packet rate average = 0.0481875
	minimum = 0.033 (at node 0)
	maximum = 0.063 (at node 12)
Injected flit rate average = 0.0484375
	minimum = 0.038 (at node 1)
	maximum = 0.062 (at node 15)
Accepted flit rate average= 0.0481875
	minimum = 0.033 (at node 0)
	maximum = 0.063 (at node 12)
Injected packet length average = 1
Accepted packet length average = 1
Total in-flight flits = 26 (26 measured)
latency change    = 0.0584797
throughput change = 0.0272374
Class 0:
Packet latency average = 24.6172
	minimum = 7
	maximum = 112
Network latency average = 24.6172
	minimum = 7
	maximum = 112
Slowest packet = 10732
Flit latency average = 24.7097
	minimum = 7
	maximum = 112
Slowest flit = 10732
Fragmentation average = 0
	minimum = 0
	maximum = 0
Injected packet rate average = 0.0482917
	minimum = 0.0413333 (at node 10)
	maximum = 0.0613333 (at node 15)
Accepted packet rate average = 0.048375
	minimum = 0.0346667 (at node 0)
	maximum = 0.056 (at node 9)
Injected flit rate average = 0.0482917
	minimum = 0.0413333 (at node 10)
	maximum = 0.0613333 (at node 15)
Accepted flit rate average= 0.048375
	minimum = 0.0346667 (at node 0)
	maximum = 0.056 (at node 9)
Injected packet length average = 1
Accepted packet length average = 1
Total in-flight flits = 20 (20 measured)
latency change    = 0.00920428
throughput change = 0.00387597
Class 0:
Packet latency average = 24.456
	minimum = 7
	maximum = 112
Network latency average = 24.456
	minimum = 7
	maximum = 112
Slowest packet = 10732
Flit latency average = 24.5273
	minimum = 7
	maximum = 112
Slowest flit = 10732
Fragmentation average = 0
	minimum = 0
	maximum = 0
Injected packet rate average = 0.0485937
	minimum = 0.042 (at node 3)
	maximum = 0.057 (at node 15)
Accepted packet rate average = 0.0486562
	minimum = 0.041 (at node 0)
	maximum = 0.055 (at node 10)
Injected flit rate average = 0.0485937
	minimum = 0.042 (at node 3)
	maximum = 0.057 (at node 15)
Accepted flit rate average= 0.0486562
	minimum = 0.041 (at node 0)
	maximum = 0.055 (at node 10)
Injected packet length average = 1
Accepted packet length average = 1
Total in-flight flits = 20 (20 measured)
latency change    = 0.00659069
throughput change = 0.00578035
Class 0:
Packet latency average = 24.6891
	minimum = 7
	maximum = 112
Network latency average = 24.6891
	minimum = 7
	maximum = 112
Slowest packet = 10732
Flit latency average = 24.743
	minimum = 7
	maximum = 112
Slowest flit = 10732
Fragmentation average = 0
	minimum = 0
	maximum = 0
Injected packet rate average = 0.0489
	minimum = 0.0432 (at node 3)
	maximum = 0.0564 (at node 15)
Accepted packet rate average = 0.049125
	minimum = 0.0408 (at node 4)
	maximum = 0.0552 (at node 12)
Injected flit rate average = 0.0489
	minimum = 0.0432 (at node 3)
	maximum = 0.0564 (at node 15)
Accepted flit rate average= 0.049125
	minimum = 0.0408 (at node 4)
	maximum = 0.0552 (at node 12)
Injected packet length average = 1
Accepted packet length average = 1
Total in-flight flits = 13 (13 measured)
latency change    = 0.00944198
throughput change = 0.00954198
Draining all recorded packets ...
Draining remaining packets ...
Time taken is 4084 cycles
Class 0:
Packet latency average = 23.9081
	minimum = 7
	maximum = 63
Network latency average = 23.9081
	minimum = 7
	maximum = 63
Slowest packet = 12050
Flit latency average = 23.9081
	minimum = 7
	maximum = 63
Slowest flit = 12050
Fragmentation average = 0
	minimum = 0
	maximum = 0
Injected packet rate average = 0.05
	minimum = 0.036 (at node 1)
	maximum = 0.066 (at node 11)
Accepted packet rate average = 0.047625
	minimum = 0.04 (at node 2)
	maximum = 0.064 (at node 0)
Injected flit rate average = 0.05
	minimum = 0.036 (at node 1)
	maximum = 0.066 (at node 11)
Accepted flit rate average= 0.047625
	minimum = 0.04 (at node 2)
	maximum = 0.064 (at node 0)
Injected packet length average = 1
Accepted packet length average = 1
Total in-flight flits = 19 (0 measured)
latency change    = 1
throughput change = 1
Class 0:
Packet latency average = 23.9277
	minimum = 7
	maximum = 80
Network latency average = 23.9277
	minimum = 7
	maximum = 80
Slowest packet = 12462
Flit latency average = 23.9277
	minimum = 7
	maximum = 80
Slowest flit = 12462
Fragmentation average = 0
	minimum = 0
	maximum = 0
Injected packet rate average = 0.050625
	minimum = 0.043 (at node 13)
	maximum = 0.059 (at node 1)
Accepted packet rate average = 0.04925
	minimum = 0.039 (at node 2)
	maximum = 0.061 (at node 0)
Injected flit rate average = 0.050625
	minimum = 0.043 (at node 13)
	maximum = 0.059 (at node 1)
Accepted flit rate average= 0.04925
	minimum = 0.039 (at node 2)
	maximum = 0.061 (at node 0)
Injected packet length average = 1
Accepted packet length average = 1
Total in-flight flits = 22 (0 measured)
latency change    = 0.000816147
throughput change = 0.0329949
Class 0:
Packet latency average = 24.3418
	minimum = 7
	maximum = 73
Network latency average = 24.2841
	minimum = 7
	maximum = 73
Slowest packet = 12700
Flit latency average = 24.2841
	minimum = 7
	maximum = 73
Slowest flit = 12700
Fragmentation average = 0
	minimum = 0
	maximum = 0
Injected packet rate average = 0.054
	minimum = 0.04 (at node 13)
	maximum = 0.07 (at node 8)
Accepted packet rate average = 0.054125
	minimum = 0.032 (at node 9)
	maximum = 0.066 (at node 7)
Injected flit rate average = 0.054
	minimum = 0.04 (at node 13)
	maximum = 0.07 (at node 8)
Accepted flit rate average= 0.054125
	minimum = 0.032 (at node 9)
	maximum = 0.066 (at node 7)
Injected packet length average = 1
Accepted packet length average = 1
Total in-flight flits = 21 (0 measured)
latency change    = 0.0170134
throughput change = 0.0900693
Warmed up ...Time used is 1500 cycles
Class 0:
Packet latency average = 26.0376
	minimum = 7
	maximum = 95
Network latency average = 26.0376
	minimum = 7
	maximum = 95
Slowest packet = 13357
Flit latency average = 25.9008
	minimum = 7
	maximum = 95
Slowest flit = 13357
Fragmentation average = 0
	minimum = 0
	maximum = 0
Injected packet rate average = 0.049625
	minimum = 0.036 (at node 1)
	maximum = 0.07 (at node 8)
Accepted packet rate average = 0.049125
	minimum = 0.03 (at node 8)
	maximum = 0.072 (at node 14)
Injected flit rate average = 0.049625
	minimum = 0.036 (at node 1)
	maximum = 0.07 (at node 8)
Accepted flit rate average= 0.049125
	minimum = 0.03 (at node 8)
	maximum = 0.072 (at node 14)
Injected packet length average = 1
Accepted packet length average = 1
Total in-flight flits = 25 (25 measured)
latency change    = 0.0651301
throughput change = 0.101781
Class 0:
Packet latency average = 26.4384
	minimum = 7
	maximum = 112
Network latency average = 26.4384
	minimum = 7
	maximum = 112
Slowest packet = 13362
Flit latency average = 26.3566
	minimum = 7
	maximum = 112
Slowest flit = 13362
Fragmentation average = 0
	minimum = 0
	maximum = 0
Injected packet rate average = 0.0475
	minimum = 0.034 (at node 1)
	maximum = 0.07 (at node 8)
Accepted packet rate average = 0.0475
	minimum = 0.036 (at node 11)
	maximum = 0.059 (at node 14)
Injected flit rate average = 0.0475
	minimum = 0.034 (at node 1)
	maximum = 0.07 (at node 8)
Accepted flit rate average= 0.0475
	minimum = 0.036 (at node 11)
	maximum = 0.059 (at node 14)
Injected packet length average = 1
Accepted packet length average = 1
Total in-flight flits = 21 (21 measured)
latency change    = 0.0151596
throughput change = 0.0342105
Class 0:
Packet latency average = 25.5878
	minimum = 7
	maximum = 112
Network latency average = 25.5878
	minimum = 7
	maximum = 112
Slowest packet = 13362
Flit latency average = 25.5497
	minimum = 7
	maximum = 112
Slowest flit = 13362
Fragmentation average = 0
	minimum = 0
	maximum = 0
Injected packet rate average = 0.048625
	minimum = 0.036 (at node 1)
	maximum = 0.066 (at node 8)
Accepted packet rate average = 0.0485833
	minimum = 0.042 (at node 8)
	maximum = 0.0586667 (at node 13)
Injected flit rate average = 0.048625
	minimum = 0.036 (at node 1)
	maximum = 0.066 (at node 8)
Accepted flit rate average= 0.0485833
	minimum = 0.042 (at node 8)
	maximum = 0.0586667 (at node 13)
Injected packet length average = 1
Accepted packet length average = 1
Total in-flight flits = 22 (22 measured)
latency change    = 0.0332447
throughput change = 0.0222985
Class 0:
Packet latency average = 25.0872
	minimum = 7
	maximum = 112
Network latency average = 25.0872
	minimum = 7
	maximum = 112
Slowest packet = 13362
Flit latency average = 25.0661
	minimum = 7
	maximum = 112
Slowest flit = 13362
Fragmentation average = 0
	minimum = 0
	maximum = 0
Injected packet rate average = 0.05
	minimum = 0.037 (at node 1)
	maximum = 0.061 (at node 8)
Accepted packet rate average = 0.0500937
	minimum = 0.044 (at node 10)
	maximum = 0.0595 (at node 13)
Injected flit rate average = 0.05
	minimum = 0.037 (at node 1)
	maximum = 0.061 (at node 8)
Accepted flit rate average= 0.0500937
	minimum = 0.044 (at node 10)
	maximum = 0.0595 (at node 13)
Injected packet length average = 1
Accepted packet length average = 1
Total in-flight flits = 18 (18 measured)
latency change    = 0.019952
throughput change = 0.0301518
Draining all recorded packets ...
Draining remaining packets ...
Time taken is 3578 cycles
Class 0:
Packet latency average = 25.1337
	minimum = 7
	maximum = 64
Network latency average = 25.1337
	minimum = 7
	maximum = 64
Slowest packet = 14898
Flit latency average = 25.1337
	minimum = 7
	maximum = 64
Slowest flit = 14898
Fragmentation average = 0
	minimum = 0
	maximum = 0
Injected packet rate average = 0.044875
	minimum = 0.032 (at node 4)
	maximum = 0.058 (at node 5)
Accepted packet rate average = 0.043
	minimum = 0.03 (at node 14)
	maximum = 0.06 (at node 15)
Injected flit rate average = 0.044875
	minimum = 0.032 (at node 4)
	maximum = 0.058 (at node 5)
Accepted flit rate average= 0.043
	minimum = 0.03 (at node 14)
	maximum = 0.06 (at node 15)
Injected packet length average = 1
Accepted packet length average = 1
Total in-flight flits = 15 (0 measured)
latency change    = 1
throughput change = 1
Class 0:
Packet latency average = 24.2704
	minimum = 7
	maximum = 77
Network latency average = 24.2704
	minimum = 7
	maximum = 77
Slowest packet = 15235
Flit latency average = 24.2704
	minimum = 7
	maximum = 77
Slowest flit = 15235
Fragmentation average = 0
	minimum = 0
	maximum = 0
Injected packet rate average = 0.0473125
	minimum = 0.038 (at node 3)
	maximum = 0.057 (at node 1)
Accepted packet rate average = 0.046
	minimum = 0.036 (at node 14)
	maximum = 0.058 (at node 13)
Injected flit rate average = 0.0473125
	minimum = 0.038 (at node 3)
	maximum = 0.057 (at node 1)
Accepted flit rate average= 0.046
	minimum = 0.036 (at node 14)
	maximum = 0.058 (at node 13)
Injected packet length average = 1
Accepted packet length average = 1
Total in-flight flits = 21 (0 measured)
latency change    = 0.0355718
throughput change = 0.0652174
Class 0:
Packet latency average = 24.082
	minimum = 7
	maximum = 76
Network latency average = 24.082
	minimum = 7
	maximum = 76
Slowest packet = 15496
Flit latency average = 24.082
	minimum = 7
	maximum = 76
Slowest flit = 15496
Fragmentation average = 0
	minimum = 0
	maximum = 0
Injected packet rate average = 0.047
	minimum = 0.034 (at node 11)
	maximum = 0.062 (at node 8)
Accepted packet rate average = 0.04725
	minimum = 0.036 (at node 12)
	maximum = 0.066 (at node 2)
Injected flit rate average = 0.047
	minimum = 0.034 (at node 11)
	maximum = 0.062 (at node 8)
Accepted flit rate average= 0.04725
	minimum = 0.036 (at node 12)
	maximum = 0.066 (at node 2)
Injected packet length average = 1
Accepted packet length average = 1
Total in-flight flits = 19 (0 measured)
latency change    = 0.00782202
throughput change = 0.026455
Warmed up ...Time used is 1500 cycles
Class 0:
Packet latency average = 23.8747
	minimum = 7
	maximum = 64
Network latency average = 23.8747
	minimum = 7
	maximum = 64
Slowest packet = 16104
Flit latency average = 24.2024
	minimum = 7
	maximum = 74
Slowest flit = 15776
Fragmentation average = 0
	minimum = 0
	maximum = 0
Injected packet rate average = 0.051625
	minimum = 0.04 (at node 6)
	maximum = 0.066 (at node 4)
Accepted packet rate average = 0.05125
	minimum = 0.04 (at node 8)
	maximum = 0.072 (at node 6)
Injected flit rate average = 0.051625
	minimum = 0.04 (at node 6)
	maximum = 0.066 (at node 4)
Accepted flit rate average= 0.05125
	minimum = 0.04 (at node 8)
	maximum = 0.072 (at node 6)
Injected packet length average = 1
Accepted packet length average = 1
Total in-flight flits = 22 (22 measured)
latency change    = 0.00868411
throughput change = 0.0780488
Class 0:
Packet latency average = 24.1629
	minimum = 7
	maximum = 69
Network latency average = 24.1629
	minimum = 7
	maximum = 69
Slowest packet = 16326
Flit latency average = 24.3218
	minimum = 7
	maximum = 74
Slowest flit = 15776
Fragmentation average = 0
	minimum = 0
	maximum = 0
Injected packet rate average = 0.051
	minimum = 0.041 (at node 3)
	maximum = 0.064 (at node 10)
Accepted packet rate average = 0.0506875
	minimum = 0.041 (at node 1)
	maximum = 0.062 (at node 15)
Injected flit rate average = 0.051
	minimum = 0.041 (at node 3)
	maximum = 0.064 (at node 10)
Accepted flit rate average= 0.0506875
	minimum = 0.041 (at node 1)
	maximum = 0.062 (at node 15)
Injected packet length average = 1
Accepted packet length average = 1
Total in-flight flits = 24 (24 measured)
latency change    = 0.0119273
throughput change = 0.0110974
Class 0:
Packet latency average = 24.1328
	minimum = 7
	maximum = 69
Network latency average = 24.1302
	minimum = 7
	maximum = 69
Slowest packet = 16326
Flit latency average = 24.2387
	minimum = 7
	maximum = 74
Slowest flit = 15776
Fragmentation average = 0
	minimum = 0
	maximum = 0
Injected packet rate average = 0.0497917
	minimum = 0.0406667 (at node 9)
	maximum = 0.0646667 (at node 4)
Accepted packet rate average = 0.04975
	minimum = 0.0426667 (at node 4)
	maximum = 0.058 (at node 15)
Injected flit rate average = 0.0497917
	minimum = 0.0406667 (at node 9)
	maximum = 0.0646667 (at node 4)
Accepted flit rate average= 0.04975
	minimum = 0.0426667 (at node 4)
	maximum = 0.058 (at node 15)
Injected packet length average = 1
Accepted packet length average = 1
Total in-flight flits = 20 (20 measured)
latency change    = 0.0012478
throughput change = 0.0188442
Class 0:
Packet latency average = 23.8323
	minimum = 7
	maximum = 69
Network latency average = 23.8304
	minimum = 7
	maximum = 69
Slowest packet = 16326
Flit latency average = 23.9153
	minimum = 7
	maximum = 74
Slowest flit = 15776
Fragmentation average = 0
	minimum = 0
	maximum = 0
Injected packet rate average = 0.0495625
	minimum = 0.041 (at node 9)
	maximum = 0.061 (at node 4)
Accepted packet rate average = 0.0497812
	minimum = 0.0415 (at node 12)
	maximum = 0.0575 (at node 0)
Injected flit rate average = 0.0495625
	minimum = 0.041 (at node 9)
	maximum = 0.061 (at node 4)
Accepted flit rate average= 0.0497812
	minimum = 0.0415 (at node 12)
	maximum = 0.0575 (at node 0)
Injected packet length average = 1
Accepted packet length average = 1
Total in-flight flits = 12 (12 measured)
latency change    = 0.0126086
throughput change = 0.000627746
Draining all recorded packets ...
Draining remaining packets ...
Time taken is 3594 cycles
Class 0:
Packet latency average = 23.3013
	minimum = 7
	maximum = 78
Network latency average = 23.3013
	minimum = 7
	maximum = 78
Slowest packet = 17630
Flit latency average = 23.3013
	minimum = 7
	maximum = 78
Slowest flit = 17630
Fragmentation average = 0
	minimum = 0
	maximum = 0
Injected packet rate average = 0.0515
	minimum = 0.036 (at node 3)
	maximum = 0.064 (at node 13)
Accepted packet rate average = 0.049375
	minimum = 0.042 (at node 11)
	maximum = 0.062 (at node 9)
Injected flit rate average = 0.0515
	minimum = 0.036 (at node 3)
	maximum = 0.064 (at node 13)
Accepted flit rate average= 0.049375
	minimum = 0.042 (at node 11)
	maximum = 0.062 (at node 9)
Injected packet length average = 1
Accepted packet length average = 1
Total in-flight flits = 17 (0 measured)
latency change    = 1
throughput change = 1
Class 0:
Packet latency average = 24.4322
	minimum = 7
	maximum = 86
Network latency average = 24.4322
	minimum = 7
	maximum = 86
Slowest packet = 18085
Flit latency average = 24.4322
	minimum = 7
	maximum = 86
Slowest flit = 18085
Fragmentation average = 0
	minimum = 0
	maximum = 0
Injected packet rate average = 0.05
	minimum = 0.039 (at node 2)
	maximum = 0.063 (at node 13)
Accepted packet rate average = 0.048875
	minimum = 0.04 (at node 4)
	maximum = 0.059 (at node 9)
Injected flit rate average = 0.05
	minimum = 0.039 (at node 2)
	maximum = 0.063 (at node 13)
Accepted flit rate average= 0.048875
	minimum = 0.04 (at node 4)
	maximum = 0.059 (at node 9)
Injected packet length average = 1
Accepted packet length average = 1
Total in-flight flits = 18 (0 measured)
latency change    = 0.0462897
throughput change = 0.0102302
Class 0:
Packet latency average = 27.9255
	minimum = 7
	maximum = 135
Network latency average = 27.9255
	minimum = 7
	maximum = 135
Slowest packet = 18450
Flit latency average = 27.9255
	minimum = 7
	maximum = 135
Slowest flit = 18450
Fragmentation average = 0
	minimum = 0
	maximum = 0
Injected packet rate average = 0.051875
	minimum = 0.032 (at node 1)
	maximum = 0.076 (at node 13)
Accepted packet rate average = 0.052
	minimum = 0.032 (at node 6)
	maximum = 0.08 (at node 8)
Injected flit rate average = 0.051875
	minimum = 0.032 (at node 1)
	maximum = 0.076 (at node 13)
Accepted flit rate average= 0.052
	minimum = 0.032 (at node 6)
	maximum = 0.08 (at node 8)
Injected packet length average = 1
Accepted packet length average = 1
Total in-flight flits = 17 (0 measured)
latency change    = 0.125092
throughput change = 0.0600962
Warmed up ...Time used is 1500 cycles
Class 0:
Packet latency average = 24.8043
	minimum = 7
	maximum = 115
Network latency average = 24.7337
	minimum = 7
	maximum = 115
Slowest packet = 18811
Flit latency average = 25.0286
	minimum = 7
	maximum = 115
Slowest flit = 18811
Fragmentation average = 0
	minimum = 0
	maximum = 0
Injected packet rate average = 0.048625
	minimum = 0.038 (at node 2)
	maximum = 0.058 (at node 1)
Accepted packet rate average = 0.048125
	minimum = 0.032 (at node 9)
	maximum = 0.082 (at node 6)
Injected flit rate average = 0.048625
	minimum = 0.038 (at node 2)
	maximum = 0.058 (at node 1)
Accepted flit rate average= 0.048125
	minimum = 0.032 (at node 9)
	maximum = 0.082 (at node 6)
Injected packet length average = 1
Accepted packet length average = 1
Total in-flight flits = 21 (21 measured)
latency change    = 0.12583
throughput change = 0.0805195
Class 0:
Packet latency average = 26.4954
	minimum = 7
	maximum = 137
Network latency average = 26.4418
	minimum = 7
	maximum = 137
Slowest packet = 19152
Flit latency average = 26.5499
	minimum = 7
	maximum = 137
Slowest flit = 19152
Fragmentation average = 0
	minimum = 0
	maximum = 0
Injected packet rate average = 0.048875
	minimum = 0.037 (at node 2)
	maximum = 0.059 (at node 12)
Accepted packet rate average = 0.048875
	minimum = 0.033 (at node 9)
	maximum = 0.068 (at node 11)
Injected flit rate average = 0.048875
	minimum = 0.037 (at node 2)
	maximum = 0.059 (at node 12)
Accepted flit rate average= 0.048875
	minimum = 0.033 (at node 9)
	maximum = 0.068 (at node 11)
Injected packet length average = 1
Accepted packet length average = 1
Total in-flight flits = 17 (17 measured)
latency change    = 0.0638252
throughput change = 0.0153453
Class 0:
Packet latency average = 25.6113
	minimum = 7
	maximum = 137
Network latency average = 25.5757
	minimum = 7
	maximum = 137
Slowest packet = 19152
Flit latency average = 25.6607
	minimum = 7
	maximum = 137
Slowest flit = 19152
Fragmentation average = 0
	minimum = 0
	maximum = 0
Injected packet rate average = 0.04875
	minimum = 0.0413333 (at node 5)
	maximum = 0.0573333 (at node 12)
Accepted packet rate average = 0.048625
	minimum = 0.0366667 (at node 9)
	maximum = 0.06 (at node 11)
Injected flit rate average = 0.04875
	minimum = 0.0413333 (at node 5)
	maximum = 0.0573333 (at node 12)
Accepted flit rate average= 0.048625
	minimum = 0.0366667 (at node 9)
	maximum = 0.06 (at node 11)
Injected packet length average = 1
Accepted packet length average = 1
Total in-flight flits = 20 (20 measured)
latency change    = 0.0345207
throughput change = 0.00514139
Class 0:
Packet latency average = 25.1715
	minimum = 7
	maximum = 137
Network latency average = 25.1445
	minimum = 7
	maximum = 137
Slowest packet = 19152
Flit latency average = 25.2138
	minimum = 7
	maximum = 137
Slowest flit = 19152
Fragmentation average = 0
	minimum = 0
	maximum = 0
Injected packet rate average = 0.0482812
	minimum = 0.0365 (at node 5)
	maximum = 0.0565 (at node 12)
Accepted packet rate average = 0.0480937
	minimum = 0.038 (at node 2)
	maximum = 0.0575 (at node 11)
Injected flit rate average = 0.0482812
	minimum = 0.0365 (at node 5)
	maximum = 0.0565 (at node 12)
Accepted flit rate average= 0.0480937
	minimum = 0.038 (at node 2)
	maximum = 0.0575 (at node 11)
Injected packet length average = 1
Accepted packet length average = 1
Total in-flight flits = 23 (23 measured)
latency change    = 0.0174729
throughput change = 0.0110461
Class 0:
Packet latency average = 24.8427
	minimum = 7
	maximum = 137
Network latency average = 24.8212
	minimum = 7
	maximum = 137
Slowest packet = 19152
Flit latency average = 24.8793
	minimum = 7
	maximum = 137
Slowest flit = 19152
Fragmentation average = 0
	minimum = 0
	maximum = 0
Injected packet rate average = 0.04825
	minimum = 0.0368 (at node 5)
	maximum = 0.0556 (at node 7)
Accepted packet rate average = 0.04825
	minimum = 0.0384 (at node 9)
	maximum = 0.0576 (at node 13)
Injected flit rate average = 0.04825
	minimum = 0.0368 (at node 5)
	maximum = 0.0556 (at node 7)
Accepted flit rate average= 0.04825
	minimum = 0.0384 (at node 9)
	maximum = 0.0576 (at node 13)
Injected packet length average = 1
Accepted packet length average = 1
Total in-flight flits = 17 (17 measured)
latency change    = 0.0132365
throughput change = 0.00323834
Draining all recorded packets ...
Draining remaining packets ...
Time taken is 4080 cycles
Class 0:
Packet latency average = 22.7216
	minimum = 7
	maximum = 68
Network latency average = 22.7216
	minimum = 7
	maximum = 68
Slowest packet = 20951
Flit latency average = 22.7216
	minimum = 7
	maximum = 68
Slowest flit = 20951
Fragmentation average = 0
	minimum = 0
	maximum = 0
Injected packet rate average = 0.048
	minimum = 0.028 (at node 1)
	maximum = 0.074 (at node 3)
Accepted packet rate average = 0.04625
	minimum = 0.032 (at node 3)
	maximum = 0.062 (at node 4)
Injected flit rate average = 0.048
	minimum = 0.028 (at node 1)
	maximum = 0.074 (at node 3)
Accepted flit rate average= 0.04625
	minimum = 0.032 (at node 3)
	maximum = 0.062 (at node 4)
Injected packet length average = 1
Accepted packet length average = 1
Total in-flight flits = 14 (0 measured)
latency change    = 1
throughput change = 1
Class 0:
Packet latency average = 23.0132
	minimum = 7
	maximum = 68
Network latency average = 23.0132
	minimum = 7
	maximum = 68
Slowest packet = 20951
Flit latency average = 23.0132
	minimum = 7
	maximum = 68
Slowest flit = 20951
Fragmentation average = 0
	minimum = 0
	maximum = 0
Injected packet rate average = 0.0485
	minimum = 0.032 (at node 1)
	maximum = 0.064 (at node 11)
Accepted packet rate average = 0.0473125
	minimum = 0.035 (at node 7)
	maximum = 0.062 (at node 6)
Injected flit rate average = 0.0485
	minimum = 0.032 (at node 1)
	maximum = 0.064 (at node 11)
Accepted flit rate average= 0.0473125
	minimum = 0.035 (at node 7)
	maximum = 0.062 (at node 6)
Injected packet length average = 1
Accepted packet length average = 1
Total in-flight flits = 19 (0 measured)
latency change    = 0.0126705
throughput change = 0.0224571
Class 0:
Packet latency average = 25.2798
	minimum = 7
	maximum = 71
Network latency average = 25.2798
	minimum = 7
	maximum = 71
Slowest packet = 21696
Flit latency average = 25.2798
	minimum = 7
	maximum = 71
Slowest flit = 21696
Fragmentation average = 0
	minimum = 0
	maximum = 0
Injected packet rate average = 0.055125
	minimum = 0.042 (at node 15)
	maximum = 0.064 (at node 8)
Accepted packet rate average = 0.0545
	minimum = 0.042 (at node 5)
	maximum = 0.086 (at node 15)
Injected flit rate average = 0.055125
	minimum = 0.042 (at node 15)
	maximum = 0.064 (at node 8)
Accepted flit rate average= 0.0545
	minimum = 0.042 (at node 5)
	maximum = 0.086 (at node 15)
Injected packet length average = 1
Accepted packet length average = 1
Total in-flight flits = 24 (0 measured)
latency change    = 0.0896607
throughput change = 0.131881
Warmed up ...Time used is 1500 cycles
Class 0:
Packet latency average = 26.9179
	minimum = 7
	maximum = 105
Network latency average = 26.9179
	minimum = 7
	maximum = 105
Slowest packet = 22100
Flit latency average = 26.6836
	minimum = 7
	maximum = 105
Slowest flit = 22100
Fragmentation average = 0
	minimum = 0
	maximum = 0
Injected packet rate average = 0.05125
	minimum = 0.028 (at node 5)
	maximum = 0.076 (at node 14)
Accepted packet rate average = 0.05175
	minimum = 0.034 (at node 9)
	maximum = 0.066 (at node 12)
Injected flit rate average = 0.05125
	minimum = 0.028 (at node 5)
	maximum = 0.076 (at node 14)
Accepted flit rate average= 0.05175
	minimum = 0.034 (at node 9)
	maximum = 0.066 (at node 12)
Injected packet length average = 1
Accepted packet length average = 1
Total in-flight flits = 20 (20 measured)
latency change    = 0.0608565
throughput change = 0.0531401
Class 0:
Packet latency average = 24.846
	minimum = 7
	maximum = 105
Network latency average = 24.846
	minimum = 7
	maximum = 105
Slowest packet = 22100
Flit latency average = 24.788
	minimum = 7
	maximum = 105
Slowest flit = 22100
Fragmentation average = 0
	minimum = 0
	maximum = 0
Injected packet rate average = 0.05075
	minimum = 0.035 (at node 5)
	maximum = 0.068 (at node 14)
Accepted packet rate average = 0.051
	minimum = 0.037 (at node 9)
	maximum = 0.058 (at node 0)
Injected flit rate average = 0.05075
	minimum = 0.035 (at node 5)
	maximum = 0.068 (at node 14)
Accepted flit rate average= 0.051
	minimum = 0.037 (at node 9)
	maximum = 0.058 (at node 0)
Injected packet length average = 1
Accepted packet length average = 1
Total in-flight flits = 20 (20 measured)
latency change    = 0.0833934
throughput change = 0.0147059
Class 0:
Packet latency average = 24.5141
	minimum = 7
	maximum = 105
Network latency average = 24.5141
	minimum = 7
	maximum = 105
Slowest packet = 22100
Flit latency average = 24.483
	minimum = 7
	maximum = 105
Slowest flit = 22100
Fragmentation average = 0
	minimum = 0
	maximum = 0
Injected packet rate average = 0.0524167
	minimum = 0.0373333 (at node 9)
	maximum = 0.0706667 (at node 14)
Accepted packet rate average = 0.0525417
	minimum = 0.0453333 (at node 5)
	maximum = 0.0606667 (at node 2)
Injected flit rate average = 0.0524167
	minimum = 0.0373333 (at node 9)
	maximum = 0.0706667 (at node 14)
Accepted flit rate average= 0.0525417
	minimum = 0.0453333 (at node 5)
	maximum = 0.0606667 (at node 2)
Injected packet length average = 1
Accepted packet length average = 1
Total in-flight flits = 21 (21 measured)
latency change    = 0.0135356
throughput change = 0.0293418
Class 0:
Packet latency average = 24.1878
	minimum = 7
	maximum = 105
Network latency average = 24.1878
	minimum = 7
	maximum = 105
Slowest packet = 22100
Flit latency average = 24.1688
	minimum = 7
	maximum = 105
Slowest flit = 22100
Fragmentation average = 0
	minimum = 0
	maximum = 0
Injected packet rate average = 0.0517188
	minimum = 0.04 (at node 9)
	maximum = 0.0675 (at node 14)
Accepted packet rate average = 0.0516563
	minimum = 0.0475 (at node 5)
	maximum = 0.059 (at node 2)
Injected flit rate average = 0.0517188
	minimum = 0.04 (at node 9)
	maximum = 0.0675 (at node 14)
Accepted flit rate average= 0.0516563
	minimum = 0.0475 (at node 5)
	maximum = 0.059 (at node 2)
Injected packet length average = 1
Accepted packet length average = 1
Total in-flight flits = 26 (26 measured)
latency change    = 0.0134903
throughput change = 0.0171406
Class 0:
Packet latency average = 24.3286
	minimum = 7
	maximum = 105
Network latency average = 24.3286
	minimum = 7
	maximum = 105
Slowest packet = 22100
Flit latency average = 24.3119
	minimum = 7
	maximum = 105
Slowest flit = 22100
Fragmentation average = 0
	minimum = 0
	maximum = 0
Injected packet rate average = 0.052075
	minimum = 0.0396 (at node 13)
	maximum = 0.064 (at node 14)
Accepted packet rate average = 0.0521
	minimum = 0.0484 (at node 6)
	maximum = 0.06 (at node 2)
Injected flit rate average = 0.052075
	minimum = 0.0396 (at node 13)
	maximum = 0.064 (at node 14)
Accepted flit rate average= 0.0521
	minimum = 0.0484 (at node 6)
	maximum = 0.06 (at node 2)
Injected packet length average = 1
Accepted packet length average = 1
Total in-flight flits = 23 (23 measured)
latency change    = 0.00578723
throughput change = 0.00851727
Draining all recorded packets ...
Draining remaining packets ...
Time taken is 4083 cycles
Class 0:
Packet latency average = 24.1837
	minimum = 7
	maximum = 63
Network latency average = 24.1837
	minimum = 7
	maximum = 63
Slowest packet = 24071
Flit latency average = 24.1837
	minimum = 7
	maximum = 63
Slowest flit = 24071
Fragmentation average = 0
	minimum = 0
	maximum = 0
Injected packet rate average = 0.0505
	minimum = 0.032 (at node 5)
	maximum = 0.07 (at node 14)
Accepted packet rate average = 0.047625
	minimum = 0.03 (at node 8)
	maximum = 0.068 (at node 0)
Injected flit rate average = 0.0505
	minimum = 0.032 (at node 5)
	maximum = 0.07 (at node 14)
Accepted flit rate average= 0.047625
	minimum = 0.03 (at node 8)
	maximum = 0.068 (at node 0)
Injected packet length average = 1
Accepted packet length average = 1
Total in-flight flits = 23 (0 measured)
latency change    = 1
throughput change = 1
Class 0:
Packet latency average = 24.7838
	minimum = 7
	maximum = 80
Network latency average = 24.7838
	minimum = 7
	maximum = 80
Slowest packet = 24532
Flit latency average = 24.7838
	minimum = 7
	maximum = 80
Slowest flit = 24532
Fragmentation average = 0
	minimum = 0
	maximum = 0
Injected packet rate average = 0.049625
	minimum = 0.034 (at node 5)
	maximum = 0.063 (at node 14)
Accepted packet rate average = 0.0485625
	minimum = 0.034 (at node 14)
	maximum = 0.058 (at node 3)
Injected flit rate average = 0.049625
	minimum = 0.034 (at node 5)
	maximum = 0.063 (at node 14)
Accepted flit rate average= 0.0485625
	minimum = 0.034 (at node 14)
	maximum = 0.058 (at node 3)
Injected packet length average = 1
Accepted packet length average = 1
Total in-flight flits = 17 (0 measured)
latency change    = 0.0242117
throughput change = 0.019305
Class 0:
Packet latency average = 22.7187
	minimum = 7
	maximum = 71
Network latency average = 22.7187
	minimum = 7
	maximum = 71
Slowest packet = 25001
Flit latency average = 22.7187
	minimum = 7
	maximum = 71
Slowest flit = 25001
Fragmentation average = 0
	minimum = 0
	maximum = 0
Injected packet rate average = 0.0485
	minimum = 0.032 (at node 2)
	maximum = 0.08 (at node 9)
Accepted packet rate average = 0.048875
	minimum = 0.03 (at node 0)
	maximum = 0.064 (at node 9)
Injected flit rate average = 0.0485
	minimum = 0.032 (at node 2)
	maximum = 0.08 (at node 9)
Accepted flit rate average= 0.048875
	minimum = 0.03 (at node 0)
	maximum = 0.064 (at node 9)
Injected packet length average = 1
Accepted packet length average = 1
Total in-flight flits = 14 (0 measured)
latency change    = 0.0908994
throughput change = 0.00639386
Warmed up ...Time used is 1500 cycles
Class 0:
Packet latency average = 23.3458
	minimum = 7
	maximum = 72
Network latency average = 23.3458
	minimum = 7
	maximum = 72
Slowest packet = 25250
Flit latency average = 23.5125
	minimum = 7
	maximum = 72
Slowest flit = 25250
Fragmentation average = 0
	minimum = 0
	maximum = 0
Injected packet rate average = 0.046
	minimum = 0.03 (at node 7)
	maximum = 0.06 (at node 3)
Accepted packet rate average = 0.045125
	minimum = 0.032 (at node 2)
	maximum = 0.072 (at node 10)
Injected flit rate average = 0.046
	minimum = 0.03 (at node 7)
	maximum = 0.06 (at node 3)
Accepted flit rate average= 0.045125
	minimum = 0.032 (at node 2)
	maximum = 0.072 (at node 10)
Injected packet length average = 1
Accepted packet length average = 1
Total in-flight flits = 21 (21 measured)
latency change    = 0.0268635
throughput change = 0.0831025
Class 0:
Packet latency average = 23.9441
	minimum = 7
	maximum = 72
Network latency average = 23.9441
	minimum = 7
	maximum = 72
Slowest packet = 25250
Flit latency average = 24.0134
	minimum = 7
	maximum = 72
Slowest flit = 25250
Fragmentation average = 0
	minimum = 0
	maximum = 0
Injected packet rate average = 0.0474375
	minimum = 0.029 (at node 7)
	maximum = 0.062 (at node 3)
Accepted packet rate average = 0.04675
	minimum = 0.033 (at node 7)
	maximum = 0.063 (at node 10)
Injected flit rate average = 0.0474375
	minimum = 0.029 (at node 7)
	maximum = 0.062 (at node 3)
Accepted flit rate average= 0.04675
	minimum = 0.033 (at node 7)
	maximum = 0.063 (at node 10)
Injected packet length average = 1
Accepted packet length average = 1
Total in-flight flits = 25 (25 measured)
latency change    = 0.0249882
throughput change = 0.0347594
Class 0:
Packet latency average = 24.0984
	minimum = 7
	maximum = 72
Network latency average = 24.0984
	minimum = 7
	maximum = 72
Slowest packet = 25250
Flit latency average = 24.1411
	minimum = 7
	maximum = 72
Slowest flit = 25250
Fragmentation average = 0
	minimum = 0
	maximum = 0
Injected packet rate average = 0.0485833
	minimum = 0.0406667 (at node 8)
	maximum = 0.0586667 (at node 3)
Accepted packet rate average = 0.0484167
	minimum = 0.0366667 (at node 6)
	maximum = 0.0586667 (at node 10)
Injected flit rate average = 0.0485833
	minimum = 0.0406667 (at node 8)
	maximum = 0.0586667 (at node 3)
Accepted flit rate average= 0.0484167
	minimum = 0.0366667 (at node 6)
	maximum = 0.0586667 (at node 10)
Injected packet length average = 1
Accepted packet length average = 1
Total in-flight flits = 18 (18 measured)
latency change    = 0.00640251
throughput change = 0.0344234
Class 0:
Packet latency average = 24.0942
	minimum = 7
	maximum = 72
Network latency average = 24.0942
	minimum = 7
	maximum = 72
Slowest packet = 25250
Flit latency average = 24.1257
	minimum = 7
	maximum = 72
Slowest flit = 25250
Fragmentation average = 0
	minimum = 0
	maximum = 0
Injected packet rate average = 0.0491875
	minimum = 0.0405 (at node 8)
	maximum = 0.0605 (at node 3)
Accepted packet rate average = 0.0492187
	minimum = 0.042 (at node 7)
	maximum = 0.0555 (at node 10)
Injected flit rate average = 0.0491875
	minimum = 0.0405 (at node 8)
	maximum = 0.0605 (at node 3)
Accepted flit rate average= 0.0492187
	minimum = 0.042 (at node 7)
	maximum = 0.0555 (at node 10)
Injected packet length average = 1
Accepted packet length average = 1
Total in-flight flits = 13 (13 measured)
latency change    = 0.000176875
throughput change = 0.0162963
Draining all recorded packets ...
Draining remaining packets ...
Time taken is 3569 cycles
Class 0:
Packet latency average = 23.1717
	minimum = 7
	maximum = 74
Network latency average = 23.1717
	minimum = 7
	maximum = 74
Slowest packet = 27052
Flit latency average = 23.1717
	minimum = 7
	maximum = 74
Slowest flit = 27052
Fragmentation average = 0
	minimum = 0
	maximum = 0
Injected packet rate average = 0.050625
	minimum = 0.036 (at node 4)
	maximum = 0.07 (at node 2)
Accepted packet rate average = 0.0495
	minimum = 0.032 (at node 11)
	maximum = 0.068 (at node 10)
Injected flit rate average = 0.050625
	minimum = 0.036 (at node 4)
	maximum = 0.07 (at node 2)
Accepted flit rate average= 0.0495
	minimum = 0.032 (at node 11)
	maximum = 0.068 (at node 10)
Injected packet length average = 1
Accepted packet length average = 1
Total in-flight flits = 9 (0 measured)
latency change    = 1
throughput change = 1
Class 0:
Packet latency average = 24.2238
	minimum = 7
	maximum = 100
Network latency average = 24.2238
	minimum = 7
	maximum = 100
Slowest packet = 27232
Flit latency average = 24.2238
	minimum = 7
	maximum = 100
Slowest flit = 27232
Fragmentation average = 0
	minimum = 0
	maximum = 0
Injected packet rate average = 0.048125
	minimum = 0.041 (at node 1)
	maximum = 0.06 (at node 2)
Accepted packet rate average = 0.0471875
	minimum = 0.036 (at node 12)
	maximum = 0.059 (at node 4)
Injected flit rate average = 0.048125
	minimum = 0.041 (at node 1)
	maximum = 0.06 (at node 2)
Accepted flit rate average= 0.0471875
	minimum = 0.036 (at node 12)
	maximum = 0.059 (at node 4)
Injected packet length average = 1
Accepted packet length average = 1
Total in-flight flits = 15 (0 measured)
latency change    = 0.0434334
throughput change = 0.0490066
Class 0:
Packet latency average = 23.0548
	minimum = 7
	maximum = 73
Network latency average = 23.0548
	minimum = 7
	maximum = 73
Slowest packet = 27773
Flit latency average = 23.0548
	minimum = 7
	maximum = 73
Slowest flit = 27773
Fragmentation average = 0
	minimum = 0
	maximum = 0
Injected packet rate average = 0.052375
	minimum = 0.024 (at node 3)
	maximum = 0.08 (at node 14)
Accepted packet rate average = 0.0525
	minimum = 0.04 (at node 0)
	maximum = 0.068 (at node 5)
Injected flit rate average = 0.052375
	minimum = 0.024 (at node 3)
	maximum = 0.08 (at node 14)
Accepted flit rate average= 0.0525
	minimum = 0.04 (at node 0)
	maximum = 0.068 (at node 5)
Injected packet length average = 1
Accepted packet length average = 1
Total in-flight flits = 14 (0 measured)
latency change    = 0.0507088
throughput change = 0.10119
Warmed up ...Time used is 1500 cycles
Class 0:
Packet latency average = 27.0514
	minimum = 7
	maximum = 137
Network latency average = 27.0405
	minimum = 7
	maximum = 137
Slowest packet = 28003
Flit latency average = 26.9635
	minimum = 7
	maximum = 137
Slowest flit = 28003
Fragmentation average = 0
	minimum = 0
	maximum = 0
Injected packet rate average = 0.049125
	minimum = 0.032 (at node 12)
	maximum = 0.068 (at node 9)
Accepted packet rate average = 0.048
	minimum = 0.028 (at node 13)
	maximum = 0.064 (at node 12)
Injected flit rate average = 0.049125
	minimum = 0.032 (at node 12)
	maximum = 0.068 (at node 9)
Accepted flit rate average= 0.048
	minimum = 0.028 (at node 13)
	maximum = 0.064 (at node 12)
Injected packet length average = 1
Accepted packet length average = 1
Total in-flight flits = 23 (23 measured)
latency change    = 0.147741
throughput change = 0.09375
Class 0:
Packet latency average = 25.6057
	minimum = 7
	maximum = 137
Network latency average = 25.6005
	minimum = 7
	maximum = 137
Slowest packet = 28003
Flit latency average = 25.5886
	minimum = 7
	maximum = 137
Slowest flit = 28003
Fragmentation average = 0
	minimum = 0
	maximum = 0
Injected packet rate average = 0.0499375
	minimum = 0.035 (at node 14)
	maximum = 0.06 (at node 9)
Accepted packet rate average = 0.049375
	minimum = 0.036 (at node 13)
	maximum = 0.062 (at node 9)
Injected flit rate average = 0.0499375
	minimum = 0.035 (at node 14)
	maximum = 0.06 (at node 9)
Accepted flit rate average= 0.049375
	minimum = 0.036 (at node 13)
	maximum = 0.062 (at node 9)
Injected packet length average = 1
Accepted packet length average = 1
Total in-flight flits = 23 (23 measured)
latency change    = 0.0564594
throughput change = 0.0278481
Class 0:
Packet latency average = 25.1691
	minimum = 7
	maximum = 137
Network latency average = 25.1614
	minimum = 7
	maximum = 137
Slowest packet = 28003
Flit latency average = 25.1587
	minimum = 7
	maximum = 137
Slowest flit = 28003
Fragmentation average = 0
	minimum = 0
	maximum = 0
Injected packet rate average = 0.0502083
	minimum = 0.038 (at node 14)
	maximum = 0.0593333 (at node 3)
Accepted packet rate average = 0.049625
	minimum = 0.0393333 (at node 13)
	maximum = 0.058 (at node 12)
Injected flit rate average = 0.0502083
	minimum = 0.038 (at node 14)
	maximum = 0.0593333 (at node 3)
Accepted flit rate average= 0.049625
	minimum = 0.0393333 (at node 13)
	maximum = 0.058 (at node 12)
Injected packet length average = 1
Accepted packet length average = 1
Total in-flight flits = 28 (28 measured)
latency change    = 0.0173465
throughput change = 0.00503778
Class 0:
Packet latency average = 25.0208
	minimum = 7
	maximum = 137
Network latency average = 25.0149
	minimum = 7
	maximum = 137
Slowest packet = 28003
Flit latency average = 25.0141
	minimum = 7
	maximum = 137
Slowest flit = 28003
Fragmentation average = 0
	minimum = 0
	maximum = 0
Injected packet rate average = 0.0485625
	minimum = 0.0405 (at node 0)
	maximum = 0.056 (at node 5)
Accepted packet rate average = 0.048625
	minimum = 0.042 (at node 10)
	maximum = 0.054 (at node 6)
Injected flit rate average = 0.0485625
	minimum = 0.0405 (at node 0)
	maximum = 0.056 (at node 5)
Accepted flit rate average= 0.048625
	minimum = 0.042 (at node 10)
	maximum = 0.054 (at node 6)
Injected packet length average = 1
Accepted packet length average = 1
Total in-flight flits = 12 (12 measured)
latency change    = 0.00592795
throughput change = 0.0205656
Class 0:
Packet latency average = 24.7677
	minimum = 7
	maximum = 137
Network latency average = 24.7631
	minimum = 7
	maximum = 137
Slowest packet = 28003
Flit latency average = 24.7643
	minimum = 7
	maximum = 137
Slowest flit = 28003
Fragmentation average = 0
	minimum = 0
	maximum = 0
Injected packet rate average = 0.049125
	minimum = 0.042 (at node 12)
	maximum = 0.0548 (at node 5)
Accepted packet rate average = 0.0491
	minimum = 0.042 (at node 8)
	maximum = 0.0544 (at node 6)
Injected flit rate average = 0.049125
	minimum = 0.042 (at node 12)
	maximum = 0.0548 (at node 5)
Accepted flit rate average= 0.0491
	minimum = 0.042 (at node 8)
	maximum = 0.0544 (at node 6)
Injected packet length average = 1
Accepted packet length average = 1
Total in-flight flits = 15 (15 measured)
latency change    = 0.0102173
throughput change = 0.00967413
Draining all recorded packets ...
Draining remaining packets ...
Time taken is 4065 cycles
Class 0:
Packet latency average = 23.7979
	minimum = 7
	maximum = 73
Network latency average = 23.7979
	minimum = 7
	maximum = 73
Slowest packet = 30043
Flit latency average = 23.7979
	minimum = 7
	maximum = 73
Slowest flit = 30043
Fragmentation average = 0
	minimum = 0
	maximum = 0
Injected packet rate average = 0.05
	minimum = 0.036 (at node 5)
	maximum = 0.066 (at node 7)
Accepted packet rate average = 0.047625
	minimum = 0.03 (at node 0)
	maximum = 0.068 (at node 7)
Injected flit rate average = 0.05
	minimum = 0.036 (at node 5)
	maximum = 0.066 (at node 7)
Accepted flit rate average= 0.047625
	minimum = 0.03 (at node 0)
	maximum = 0.068 (at node 7)
Injected packet length average = 1
Accepted packet length average = 1
Total in-flight flits = 19 (0 measured)
latency change    = 1
throughput change = 1
Class 0:
Packet latency average = 24.3548
	minimum = 7
	maximum = 100
Network latency average = 24.3548
	minimum = 7
	maximum = 100
Slowest packet = 30406
Flit latency average = 24.3548
	minimum = 7
	maximum = 100
Slowest flit = 30406
Fragmentation average = 0
	minimum = 0
	maximum = 0
Injected packet rate average = 0.0475
	minimum = 0.037 (at node 5)
	maximum = 0.058 (at node 7)
Accepted packet rate average = 0.0466875
	minimum = 0.037 (at node 0)
	maximum = 0.058 (at node 7)
Injected flit rate average = 0.0475
	minimum = 0.037 (at node 5)
	maximum = 0.058 (at node 7)
Accepted flit rate average= 0.0466875
	minimum = 0.037 (at node 0)
	maximum = 0.058 (at node 7)
Injected packet length average = 1
Accepted packet length average = 1
Total in-flight flits = 13 (0 measured)
latency change    = 0.0228642
throughput change = 0.0200803
Class 0:
Packet latency average = 24.1156
	minimum = 7
	maximum = 71
Network latency average = 24.1156
	minimum = 7
	maximum = 71
Slowest packet = 30754
Flit latency average = 24.1156
	minimum = 7
	maximum = 71
Slowest flit = 30754
Fragmentation average = 0
	minimum = 0
	maximum = 0
Injected packet rate average = 0.047
	minimum = 0.022 (at node 15)
	maximum = 0.064 (at node 6)
Accepted packet rate average = 0.0465
	minimum = 0.03 (at node 10)
	maximum = 0.062 (at node 15)
Injected flit rate average = 0.047
	minimum = 0.022 (at node 15)
	maximum = 0.064 (at node 6)
Accepted flit rate average= 0.0465
	minimum = 0.03 (at node 10)
	maximum = 0.062 (at node 15)
Injected packet length average = 1
Accepted packet length average = 1
Total in-flight flits = 17 (0 measured)
latency change    = 0.00991727
throughput change = 0.00403226
Warmed up ...Time used is 1500 cycles
Class 0:
Packet latency average = 25.824
	minimum = 7
	maximum = 94
Network latency average = 25.7787
	minimum = 7
	maximum = 94
Slowest packet = 31152
Flit latency average = 26.2449
	minimum = 7
	maximum = 94
Slowest flit = 31152
Fragmentation average = 0
	minimum = 0
	maximum = 0
Injected packet rate average = 0.04925
	minimum = 0.026 (at node 14)
	maximum = 0.068 (at node 1)
Accepted packet rate average = 0.049
	minimum = 0.038 (at node 4)
	maximum = 0.068 (at node 8)
Injected flit rate average = 0.04925
	minimum = 0.026 (at node 14)
	maximum = 0.068 (at node 1)
Accepted flit rate average= 0.049
	minimum = 0.038 (at node 4)
	maximum = 0.068 (at node 8)
Injected packet length average = 1
Accepted packet length average = 1
Total in-flight flits = 19 (19 measured)
latency change    = 0.0661558
throughput change = 0.0510204
Class 0:
Packet latency average = 25.4608
	minimum = 7
	maximum = 94
Network latency average = 25.439
	minimum = 7
	maximum = 94
Slowest packet = 31152
Flit latency average = 25.6759
	minimum = 7
	maximum = 94
Slowest flit = 31152
Fragmentation average = 0
	minimum = 0
	maximum = 0
Injected packet rate average = 0.0503125
	minimum = 0.037 (at node 15)
	maximum = 0.066 (at node 1)
Accepted packet rate average = 0.04975
	minimum = 0.038 (at node 3)
	maximum = 0.07 (at node 8)
Injected flit rate average = 0.0503125
	minimum = 0.037 (at node 15)
	maximum = 0.066 (at node 1)
Accepted flit rate average= 0.04975
	minimum = 0.038 (at node 3)
	maximum = 0.07 (at node 8)
Injected packet length average = 1
Accepted packet length average = 1
Total in-flight flits = 26 (26 measured)
latency change    = 0.0142632
throughput change = 0.0150754
Class 0:
Packet latency average = 25.2196
	minimum = 7
	maximum = 94
Network latency average = 25.2052
	minimum = 7
	maximum = 94
Slowest packet = 31152
Flit latency average = 25.3655
	minimum = 7
	maximum = 94
Slowest flit = 31152
Fragmentation average = 0
	minimum = 0
	maximum = 0
Injected packet rate average = 0.0503333
	minimum = 0.036 (at node 13)
	maximum = 0.0613333 (at node 1)
Accepted packet rate average = 0.0500417
	minimum = 0.042 (at node 9)
	maximum = 0.064 (at node 8)
Injected flit rate average = 0.0503333
	minimum = 0.036 (at node 13)
	maximum = 0.0613333 (at node 1)
Accepted flit rate average= 0.0500417
	minimum = 0.042 (at node 9)
	maximum = 0.064 (at node 8)
Injected packet length average = 1
Accepted packet length average = 1
Total in-flight flits = 24 (24 measured)
latency change    = 0.00956608
throughput change = 0.00582848
Class 0:
Packet latency average = 25.8454
	minimum = 7
	maximum = 118
Network latency average = 25.8349
	minimum = 7
	maximum = 118
Slowest packet = 32419
Flit latency average = 25.9461
	minimum = 7
	maximum = 118
Slowest flit = 32419
Fragmentation average = 0
	minimum = 0
	maximum = 0
Injected packet rate average = 0.0509688
	minimum = 0.0395 (at node 13)
	maximum = 0.062 (at node 1)
Accepted packet rate average = 0.0510625
	minimum = 0.041 (at node 14)
	maximum = 0.0605 (at node 8)
Injected flit rate average = 0.0509688
	minimum = 0.0395 (at node 13)
	maximum = 0.062 (at node 1)
Accepted flit rate average= 0.0510625
	minimum = 0.041 (at node 14)
	maximum = 0.0605 (at node 8)
Injected packet length average = 1
Accepted packet length average = 1
Total in-flight flits = 14 (14 measured)
latency change    = 0.0242131
throughput change = 0.0199918
Draining all recorded packets ...
Draining remaining packets ...
Time taken is 3580 cycles
Class 0:
Packet latency average = 24.4553
	minimum = 7
	maximum = 81
Network latency average = 24.4469
	minimum = 7
	maximum = 81
Slowest packet = 32980
Flit latency average = 24.4469
	minimum = 7
	maximum = 81
Slowest flit = 32980
Fragmentation average = 0
	minimum = 0
	maximum = 0
Injected packet rate average = 0.047125
	minimum = 0.028 (at node 13)
	maximum = 0.07 (at node 15)
Accepted packet rate average = 0.04475
	minimum = 0.032 (at node 1)
	maximum = 0.064 (at node 14)
Injected flit rate average = 0.047125
	minimum = 0.028 (at node 13)
	maximum = 0.07 (at node 15)
Accepted flit rate average= 0.04475
	minimum = 0.032 (at node 1)
	maximum = 0.064 (at node 14)
Injected packet length average = 1
Accepted packet length average = 1
Total in-flight flits = 19 (0 measured)
latency change    = 1
throughput change = 1
Class 0:
Packet latency average = 24.0505
	minimum = 7
	maximum = 81
Network latency average = 24.0466
	minimum = 7
	maximum = 81
Slowest packet = 32980
Flit latency average = 24.0466
	minimum = 7
	maximum = 81
Slowest flit = 32980
Fragmentation average = 0
	minimum = 0
	maximum = 0
Injected packet rate average = 0.0494375
	minimum = 0.037 (at node 2)
	maximum = 0.062 (at node 15)
Accepted packet rate average = 0.0483125
	minimum = 0.039 (at node 7)
	maximum = 0.071 (at node 14)
Injected flit rate average = 0.0494375
	minimum = 0.037 (at node 2)
	maximum = 0.062 (at node 15)
Accepted flit rate average= 0.0483125
	minimum = 0.039 (at node 7)
	maximum = 0.071 (at node 14)
Injected packet length average = 1
Accepted packet length average = 1
Total in-flight flits = 18 (0 measured)
latency change    = 0.0168335
throughput change = 0.0737387
Class 0:
Packet latency average = 25.2972
	minimum = 7
	maximum = 75
Network latency average = 25.2972
	minimum = 7
	maximum = 75
Slowest packet = 33546
Flit latency average = 25.2972
	minimum = 7
	maximum = 75
Slowest flit = 33546
Fragmentation average = 0
	minimum = 0
	maximum = 0
Injected packet rate average = 0.045875
	minimum = 0.03 (at node 5)
	maximum = 0.056 (at node 2)
Accepted packet rate average = 0.045
	minimum = 0.026 (at node 15)
	maximum = 0.054 (at node 1)
Injected flit rate average = 0.045875
	minimum = 0.03 (at node 5)
	maximum = 0.056 (at node 2)
Accepted flit rate average= 0.045
	minimum = 0.026 (at node 15)
	maximum = 0.054 (at node 1)
Injected packet length average = 1
Accepted packet length average = 1
Total in-flight flits = 25 (0 measured)
latency change    = 0.0492848
throughput change = 0.0736111
Warmed up ...Time used is 1500 cycles
Class 0:
Packet latency average = 21.8856
	minimum = 7
	maximum = 75
Network latency average = 21.8856
	minimum = 7
	maximum = 75
Slowest packet = 33873
Flit latency average = 22.9973
	minimum = 7
	maximum = 80
Slowest flit = 33832
Fragmentation average = 0
	minimum = 0
	maximum = 0
Injected packet rate average = 0.044875
	minimum = 0.034 (at node 12)
	maximum = 0.062 (at node 0)
Accepted packet rate average = 0.04575
	minimum = 0.028 (at node 1)
	maximum = 0.07 (at node 10)
Injected flit rate average = 0.044875
	minimum = 0.034 (at node 12)
	maximum = 0.062 (at node 0)
Accepted flit rate average= 0.04575
	minimum = 0.028 (at node 1)
	maximum = 0.07 (at node 10)
Injected packet length average = 1
Accepted packet length average = 1
Total in-flight flits = 18 (18 measured)
latency change    = 0.155883
throughput change = 0.0163934
Class 0:
Packet latency average = 22.6514
	minimum = 7
	maximum = 75
Network latency average = 22.6514
	minimum = 7
	maximum = 75
Slowest packet = 33873
Flit latency average = 23.1434
	minimum = 7
	maximum = 80
Slowest flit = 33832
Fragmentation average = 0
	minimum = 0
	maximum = 0
Injected packet rate average = 0.048875
	minimum = 0.039 (at node 7)
	maximum = 0.058 (at node 0)
Accepted packet rate average = 0.04925
	minimum = 0.037 (at node 2)
	maximum = 0.068 (at node 11)
Injected flit rate average = 0.048875
	minimum = 0.039 (at node 7)
	maximum = 0.058 (at node 0)
Accepted flit rate average= 0.04925
	minimum = 0.037 (at node 2)
	maximum = 0.068 (at node 11)
Injected packet length average = 1
Accepted packet length average = 1
Total in-flight flits = 19 (19 measured)
latency change    = 0.0338057
throughput change = 0.071066
Class 0:
Packet latency average = 23.8488
	minimum = 7
	maximum = 112
Network latency average = 23.8488
	minimum = 7
	maximum = 112
Slowest packet = 34705
Flit latency average = 24.1447
	minimum = 7
	maximum = 112
Slowest flit = 34705
Fragmentation average = 0
	minimum = 0
	maximum = 0
Injected packet rate average = 0.049875
	minimum = 0.0426667 (at node 9)
	maximum = 0.0646667 (at node 4)
Accepted packet rate average = 0.050375
	minimum = 0.0426667 (at node 1)
	maximum = 0.0646667 (at node 11)
Injected flit rate average = 0.049875
	minimum = 0.0426667 (at node 9)
	maximum = 0.0646667 (at node 4)
Accepted flit rate average= 0.050375
	minimum = 0.0426667 (at node 1)
	maximum = 0.0646667 (at node 11)
Injected packet length average = 1
Accepted packet length average = 1
Total in-flight flits = 13 (13 measured)
latency change    = 0.0502097
throughput change = 0.0223325
Class 0:
Packet latency average = 23.7774
	minimum = 7
	maximum = 112
Network latency average = 23.7774
	minimum = 7
	maximum = 112
Slowest packet = 34705
Flit latency average = 24.0006
	minimum = 7
	maximum = 112
Slowest flit = 34705
Fragmentation average = 0
	minimum = 0
	maximum = 0
Injected packet rate average = 0.0501875
	minimum = 0.042 (at node 9)
	maximum = 0.0645 (at node 4)
Accepted packet rate average = 0.0503437
	minimum = 0.043 (at node 5)
	maximum = 0.0615 (at node 14)
Injected flit rate average = 0.0501875
	minimum = 0.042 (at node 9)
	maximum = 0.0645 (at node 4)
Accepted flit rate average= 0.0503437
	minimum = 0.043 (at node 5)
	maximum = 0.0615 (at node 14)
Injected packet length average = 1
Accepted packet length average = 1
Total in-flight flits = 20 (20 measured)
latency change    = 0.00300243
throughput change = 0.000620732
Class 0:
Packet latency average = 24.085
	minimum = 7
	maximum = 112
Network latency average = 24.085
	minimum = 7
	maximum = 112
Slowest packet = 34705
Flit latency average = 24.2588
	minimum = 7
	maximum = 112
Slowest flit = 34705
Fragmentation average = 0
	minimum = 0
	maximum = 0
Injected packet rate average = 0.050525
	minimum = 0.0428 (at node 2)
	maximum = 0.0624 (at node 4)
Accepted packet rate average = 0.050625
	minimum = 0.042 (at node 5)
	maximum = 0.0596 (at node 11)
Injected flit rate average = 0.050525
	minimum = 0.0428 (at node 2)
	maximum = 0.0624 (at node 4)
Accepted flit rate average= 0.050625
	minimum = 0.042 (at node 5)
	maximum = 0.0596 (at node 11)
Injected packet length average = 1
Accepted packet length average = 1
Total in-flight flits = 21 (21 measured)
latency change    = 0.0127703
throughput change = 0.00555556
Class 0:
Packet latency average = 24.2072
	minimum = 7
	maximum = 112
Network latency average = 24.2072
	minimum = 7
	maximum = 112
Slowest packet = 34705
Flit latency average = 24.3503
	minimum = 7
	maximum = 112
Slowest flit = 34705
Fragmentation average = 0
	minimum = 0
	maximum = 0
Injected packet rate average = 0.0507083
	minimum = 0.0436667 (at node 2)
	maximum = 0.0596667 (at node 4)
Accepted packet rate average = 0.0507917
	minimum = 0.045 (at node 5)
	maximum = 0.058 (at node 11)
Injected flit rate average = 0.0507083
	minimum = 0.0436667 (at node 2)
	maximum = 0.0596667 (at node 4)
Accepted flit rate average= 0.0507917
	minimum = 0.045 (at node 5)
	maximum = 0.058 (at node 11)
Injected packet length average = 1
Accepted packet length average = 1
Total in-flight flits = 21 (21 measured)
latency change    = 0.00504853
throughput change = 0.00328138
Draining all recorded packets ...
Draining remaining packets ...
Time taken is 4607 cycles
Class 0:
Packet latency average = 23.2102
	minimum = 7
	maximum = 68
Network latency average = 23.2102
	minimum = 7
	maximum = 68
Slowest packet = 36395
Flit latency average = 23.2102
	minimum = 7
	maximum = 68
Slowest flit = 36395
Fragmentation average = 0
	minimum = 0
	maximum = 0
Injected packet rate average = 0.049125
	minimum = 0.032 (at node 11)
	maximum = 0.058 (at node 10)
Accepted packet rate average = 0.046375
	minimum = 0.028 (at node 7)
	maximum = 0.08 (at node 14)
Injected flit rate average = 0.049125
	minimum = 0.032 (at node 11)
	maximum = 0.058 (at node 10)
Accepted flit rate average= 0.046375
	minimum = 0.028 (at node 7)
	maximum = 0.08 (at node 14)
Injected packet length average = 1
Accepted packet length average = 1
Total in-flight flits = 22 (0 measured)
latency change    = 1
throughput change = 1
Class 0:
Packet latency average = 23.9228
	minimum = 7
	maximum = 71
Network latency average = 23.9228
	minimum = 7
	maximum = 71
Slowest packet = 37002
Flit latency average = 23.9228
	minimum = 7
	maximum = 71
Slowest flit = 37002
Fragmentation average = 0
	minimum = 0
	maximum = 0
Injected packet rate average = 0.051125
	minimum = 0.039 (at node 11)
	maximum = 0.063 (at node 14)
Accepted packet rate average = 0.049375
	minimum = 0.039 (at node 0)
	maximum = 0.066 (at node 15)
Injected flit rate average = 0.051125
	minimum = 0.039 (at node 11)
	maximum = 0.063 (at node 14)
Accepted flit rate average= 0.049375
	minimum = 0.039 (at node 0)
	maximum = 0.066 (at node 15)
Injected packet length average = 1
Accepted packet length average = 1
Total in-flight flits = 28 (0 measured)
latency change    = 0.0297851
[...]
	minimum = 7
	maximum = 69
Slowest flit = 68668
Fragmentation average = 0
	minimum = 0
	maximum = 0
Injected packet rate average = 0.047625
	minimum = 0.032 (at node 8)
	maximum = 0.062 (at node 11)
Accepted packet rate average = 0.045625
	minimum = 0.024 (at node 2)
	maximum = 0.06 (at node 9)
Injected flit rate average = 0.047625
	minimum = 0.032 (at node 8)
	maximum = 0.062 (at node 11)
Accepted flit rate average= 0.045625
	minimum = 0.024 (at node 2)
	maximum = 0.06 (at node 9)
Injected packet length average = 1
Accepted packet length average = 1
Total in-flight flits = 16 (0 measured)
latency change    = 1
throughput change = 1
Class 0:
Packet latency average = 24.3218
	minimum = 7
	maximum = 70
Network latency average = 24.3218
	minimum = 7
	maximum = 70
Slowest packet = 69096
Flit latency average = 24.3218
	minimum = 7
	maximum = 70
Slowest flit = 69096
Fragmentation average = 0
	minimum = 0
	maximum = 0
Injected packet rate average = 0.047875
	minimum = 0.037 (at node 3)
	maximum = 0.059 (at node 13)
Accepted packet rate average = 0.0468125
	minimum = 0.04 (at node 13)
	maximum = 0.056 (at node 9)
Injected flit rate average = 0.047875
	minimum = 0.037 (at node 3)
	maximum = 0.059 (at node 13)
Accepted flit rate average= 0.0468125
	minimum = 0.04 (at node 13)
	maximum = 0.056 (at node 9)
Injected packet length average = 1
Accepted packet length average = 1
Total in-flight flits = 17 (0 measured)
latency change    = 0.00355471
throughput change = 0.0253672
Class 0:
Packet latency average = 23.1838
	minimum = 7
	maximum = 73
Network latency average = 23.1838
	minimum = 7
	maximum = 73
Slowest packet = 69343
Flit latency average = 23.1838
	minimum = 7
	maximum = 73
Slowest flit = 69343
Fragmentation average = 0
	minimum = 0
	maximum = 0
Injected packet rate average = 0.0525
	minimum = 0.038 (at node 3)
	maximum = 0.066 (at node 4)
Accepted packet rate average = 0.051
	minimum = 0.036 (at node 13)
	maximum = 0.07 (at node 12)
Injected flit rate average = 0.0525
	minimum = 0.038 (at node 3)
	maximum = 0.066 (at node 4)
Accepted flit rate average= 0.051
	minimum = 0.036 (at node 13)
	maximum = 0.07 (at node 12)
Injected packet length average = 1
Accepted packet length average = 1
Total in-flight flits = 29 (0 measured)
latency change    = 0.0490833
throughput change = 0.0821078
Warmed up ...Time used is 1500 cycles
Class 0:
Packet latency average = 24.9584
	minimum = 7
	maximum = 85
Network latency average = 24.9584
	minimum = 7
	maximum = 85
Slowest packet = 69886
Flit latency average = 25.2681
	minimum = 7
	maximum = 94
Slowest flit = 69602
Fragmentation average = 0
	minimum = 0
	maximum = 0
Injected packet rate average = 0.051375
	minimum = 0.032 (at node 8)
	maximum = 0.066 (at node 11)
Accepted packet rate average = 0.05175
	minimum = 0.034 (at node 7)
	maximum = 0.068 (at node 1)
Injected flit rate average = 0.051375
	minimum = 0.032 (at node 8)
	maximum = 0.066 (at node 11)
Accepted flit rate average= 0.05175
	minimum = 0.034 (at node 7)
	maximum = 0.068 (at node 1)
Injected packet length average = 1
Accepted packet length average = 1
Total in-flight flits = 26 (26 measured)
latency change    = 0.0711029
throughput change = 0.0144928
Class 0:
Packet latency average = 24.8385
	minimum = 7
	maximum = 85
Network latency average = 24.8385
	minimum = 7
	maximum = 85
Slowest packet = 69886
Flit latency average = 24.9976
	minimum = 7
	maximum = 94
Slowest flit = 69602
Fragmentation average = 0
	minimum = 0
	maximum = 0
Injected packet rate average = 0.0509375
	minimum = 0.04 (at node 6)
	maximum = 0.058 (at node 4)
Accepted packet rate average = 0.05175
	minimum = 0.036 (at node 7)
	maximum = 0.063 (at node 6)
Injected flit rate average = 0.0509375
	minimum = 0.04 (at node 6)
	maximum = 0.058 (at node 4)
Accepted flit rate average= 0.05175
	minimum = 0.036 (at node 7)
	maximum = 0.063 (at node 6)
Injected packet length average = 1
Accepted packet length average = 1
Total in-flight flits = 16 (16 measured)
latency change    = 0.00482691
throughput change = 0
Class 0:
Packet latency average = 24.6086
	minimum = 7
	maximum = 85
Network latency average = 24.6086
	minimum = 7
	maximum = 85
Slowest packet = 69886
Flit latency average = 24.7197
	minimum = 7
	maximum = 94
Slowest flit = 69602
Fragmentation average = 0
	minimum = 0
	maximum = 0
Injected packet rate average = 0.0514167
	minimum = 0.0426667 (at node 7)
	maximum = 0.06 (at node 5)
Accepted packet rate average = 0.051875
	minimum = 0.0373333 (at node 7)
	maximum = 0.0653333 (at node 6)
Injected flit rate average = 0.0514167
	minimum = 0.0426667 (at node 7)
	maximum = 0.06 (at node 5)
Accepted flit rate average= 0.051875
	minimum = 0.0373333 (at node 7)
	maximum = 0.0653333 (at node 6)
Injected packet length average = 1
Accepted packet length average = 1
Total in-flight flits = 18 (18 measured)
latency change    = 0.00934616
throughput change = 0.00240964
Class 0:
Packet latency average = 25.0131
	minimum = 7
	maximum = 148
Network latency average = 24.8843
	minimum = 7
	maximum = 148
Slowest packet = 70837
Flit latency average = 24.964
	minimum = 7
	maximum = 148
Slowest flit = 70837
Fragmentation average = 0
	minimum = 0
	maximum = 0
Injected packet rate average = 0.0508125
	minimum = 0.042 (at node 6)
	maximum = 0.061 (at node 3)
Accepted packet rate average = 0.0511563
	minimum = 0.0435 (at node 7)
	maximum = 0.0595 (at node 6)
Injected flit rate average = 0.0508125
	minimum = 0.042 (at node 6)
	maximum = 0.061 (at node 3)
Accepted flit rate average= 0.0511563
	minimum = 0.0435 (at node 7)
	maximum = 0.0595 (at node 6)
Injected packet length average = 1
Accepted packet length average = 1
Total in-flight flits = 18 (18 measured)
latency change    = 0.0161718
throughput change = 0.0140501
Draining all recorded packets ...
Draining remaining packets ...
Time taken is 3582 cycles
Class 0:
Packet latency average = 24.2837
	minimum = 7
	maximum = 71
Network latency average = 24.2837
	minimum = 7
	maximum = 71
Slowest packet = 71410
Flit latency average = 24.2837
	minimum = 7
	maximum = 71
Slowest flit = 71410
Fragmentation average = 0
	minimum = 0
	maximum = 0
Injected packet rate average = 0.047
	minimum = 0.04 (at node 5)
	maximum = 0.058 (at node 2)
Accepted packet rate average = 0.045375
	minimum = 0.032 (at node 2)
	maximum = 0.066 (at node 9)
Injected flit rate average = 0.047
	minimum = 0.04 (at node 5)
	maximum = 0.058 (at node 2)
Accepted flit rate average= 0.045375
	minimum = 0.032 (at node 2)
	maximum = 0.066 (at node 9)
Injected packet length average = 1
Accepted packet length average = 1
Total in-flight flits = 13 (0 measured)
latency change    = 1
throughput change = 1
Class 0:
Packet latency average = 23.6562
	minimum = 7
	maximum = 71
Network latency average = 23.6562
	minimum = 7
	maximum = 71
Slowest packet = 71410
Flit latency average = 23.6562
	minimum = 7
	maximum = 71
Slowest flit = 71410
Fragmentation average = 0
	minimum = 0
	maximum = 0
Injected packet rate average = 0.048625
	minimum = 0.042 (at node 8)
	maximum = 0.057 (at node 15)
Accepted packet rate average = 0.047625
	minimum = 0.037 (at node 15)
	maximum = 0.058 (at node 9)
Injected flit rate average = 0.048625
	minimum = 0.042 (at node 8)
	maximum = 0.057 (at node 15)
Accepted flit rate average= 0.047625
	minimum = 0.037 (at node 15)
	maximum = 0.058 (at node 9)
Injected packet length average = 1
Accepted packet length average = 1
Total in-flight flits = 16 (0 measured)
latency change    = 0.0265292
throughput change = 0.0472441
Class 0:
Packet latency average = 23.0213
	minimum = 7
	maximum = 57
Network latency average = 23.0213
	minimum = 7
	maximum = 57
Slowest packet = 72223
Flit latency average = 23.0213
	minimum = 7
	maximum = 57
Slowest flit = 72223
Fragmentation average = 0
	minimum = 0
	maximum = 0
Injected packet rate average = 0.047375
	minimum = 0.034 (at node 11)
	maximum = 0.06 (at node 3)
Accepted packet rate average = 0.046875
	minimum = 0.034 (at node 11)
	maximum = 0.064 (at node 10)
Injected flit rate average = 0.047375
	minimum = 0.034 (at node 11)
	maximum = 0.06 (at node 3)
Accepted flit rate average= 0.046875
	minimum = 0.034 (at node 11)
	maximum = 0.064 (at node 10)
Injected packet length average = 1
Accepted packet length average = 1
Total in-flight flits = 20 (0 measured)
latency change    = 0.0275759
throughput change = 0.016
Warmed up ...Time used is 1500 cycles
Class 0:
Packet latency average = 24.9196
	minimum = 7
	maximum = 122
Network latency average = 24.9196
	minimum = 7
	maximum = 122
Slowest packet = 72655
Flit latency average = 25.4713
	minimum = 7
	maximum = 122
Slowest flit = 72655
Fragmentation average = 0
	minimum = 0
	maximum = 0
Injected packet rate average = 0.052125
	minimum = 0.034 (at node 8)
	maximum = 0.072 (at node 10)
Accepted packet rate average = 0.05225
	minimum = 0.03 (at node 14)
	maximum = 0.072 (at node 8)
Injected flit rate average = 0.052125
	minimum = 0.034 (at node 8)
	maximum = 0.072 (at node 10)
Accepted flit rate average= 0.05225
	minimum = 0.03 (at node 14)
	maximum = 0.072 (at node 8)
Injected packet length average = 1
Accepted packet length average = 1
Total in-flight flits = 19 (19 measured)
latency change    = 0.0761756
throughput change = 0.102871
Class 0:
Packet latency average = 24.7821
	minimum = 7
	maximum = 122
Network latency average = 24.7821
	minimum = 7
	maximum = 122
Slowest packet = 72655
Flit latency average = 25.0609
	minimum = 7
	maximum = 122
Slowest flit = 72655
Fragmentation average = 0
	minimum = 0
	maximum = 0
Injected packet rate average = 0.052
	minimum = 0.041 (at node 9)
	maximum = 0.062 (at node 2)
Accepted packet rate average = 0.0523125
	minimum = 0.036 (at node 14)
	maximum = 0.071 (at node 8)
Injected flit rate average = 0.052
	minimum = 0.041 (at node 9)
	maximum = 0.062 (at node 2)
Accepted flit rate average= 0.0523125
	minimum = 0.036 (at node 14)
	maximum = 0.071 (at node 8)
Injected packet length average = 1
Accepted packet length average = 1
Total in-flight flits = 15 (15 measured)
latency change    = 0.00554707
throughput change = 0.00119474
Class 0:
Packet latency average = 24.5306
	minimum = 7
	maximum = 122
Network latency average = 24.5306
	minimum = 7
	maximum = 122
Slowest packet = 72655
Flit latency average = 24.7271
	minimum = 7
	maximum = 122
Slowest flit = 72655
Fragmentation average = 0
	minimum = 0
	maximum = 0
Injected packet rate average = 0.0504167
	minimum = 0.044 (at node 9)
	maximum = 0.0566667 (at node 2)
Accepted packet rate average = 0.0505417
	minimum = 0.0346667 (at node 14)
	maximum = 0.0606667 (at node 3)
Injected flit rate average = 0.0504167
	minimum = 0.044 (at node 9)
	maximum = 0.0566667 (at node 2)
Accepted flit rate average= 0.0505417
	minimum = 0.0346667 (at node 14)
	maximum = 0.0606667 (at node 3)
Injected packet length average = 1
Accepted packet length average = 1
Total in-flight flits = 17 (17 measured)
latency change    = 0.0102539
throughput change = 0.0350371
Class 0:
Packet latency average = 24.7034
	minimum = 7
	maximum = 122
Network latency average = 24.7034
	minimum = 7
	maximum = 122
Slowest packet = 72655
Flit latency average = 24.8501
	minimum = 7
	maximum = 122
Slowest flit = 72655
Fragmentation average = 0
	minimum = 0
	maximum = 0
Injected packet rate average = 0.0500312
	minimum = 0.043 (at node 10)
	maximum = 0.0605 (at node 2)
Accepted packet rate average = 0.0500312
	minimum = 0.044 (at node 9)
	maximum = 0.0605 (at node 8)
Injected flit rate average = 0.0500312
	minimum = 0.043 (at node 10)
	maximum = 0.0605 (at node 2)
Accepted flit rate average= 0.0500312
	minimum = 0.044 (at node 9)
	maximum = 0.0605 (at node 8)
Injected packet length average = 1
Accepted packet length average = 1
Total in-flight flits = 20 (20 measured)
latency change    = 0.00699327
throughput change = 0.010202
Draining all recorded packets ...
Draining remaining packets ...
Time taken is 3597 cycles
Class 0:
Packet latency average = 24.5901
	minimum = 7
	maximum = 117
Network latency average = 24.5901
	minimum = 7
	maximum = 117
Slowest packet = 74380
Flit latency average = 24.5901
	minimum = 7
	maximum = 117
Slowest flit = 74380
Fragmentation average = 0
	minimum = 0
	maximum = 0
Injected packet rate average = 0.05275
	minimum = 0.032 (at node 2)
	maximum = 0.072 (at node 7)
Accepted packet rate average = 0.050625
	minimum = 0.03 (at node 8)
	maximum = 0.078 (at node 5)
Injected flit rate average = 0.05275
	minimum = 0.032 (at node 2)
	maximum = 0.072 (at node 7)
Accepted flit rate average= 0.050625
	minimum = 0.03 (at node 8)
	maximum = 0.078 (at node 5)
Injected packet length average = 1
Accepted packet length average = 1
Total in-flight flits = 17 (0 measured)
latency change    = 1
throughput change = 1
Class 0:
Packet latency average = 23.972
	minimum = 7
	maximum = 117
Network latency average = 23.972
	minimum = 7
	maximum = 117
Slowest packet = 74380
Flit latency average = 23.972
	minimum = 7
	maximum = 117
Slowest flit = 74380
Fragmentation average = 0
	minimum = 0
	maximum = 0
Injected packet rate average = 0.0505625
	minimum = 0.039 (at node 12)
	maximum = 0.06 (at node 7)
Accepted packet rate average = 0.0490625
	minimum = 0.03 (at node 10)
	maximum = 0.062 (at node 2)
Injected flit rate average = 0.0505625
	minimum = 0.039 (at node 12)
	maximum = 0.06 (at node 7)
Accepted flit rate average= 0.0490625
	minimum = 0.03 (at node 10)
	maximum = 0.062 (at node 2)
Injected packet length average = 1
Accepted packet length average = 1
Total in-flight flits = 24 (0 measured)
latency change    = 0.0257863
throughput change = 0.0318471
Class 0:
Packet latency average = 24.9058
	minimum = 7
	maximum = 87
Network latency average = 24.9058
	minimum = 7
	maximum = 87
Slowest packet = 74951
Flit latency average = 24.9058
	minimum = 7
	maximum = 87
Slowest flit = 74951
Fragmentation average = 0
	minimum = 0
	maximum = 0
Injected packet rate average = 0.04675
	minimum = 0.022 (at node 6)
	maximum = 0.068 (at node 3)
Accepted packet rate average = 0.04775
	minimum = 0.034 (at node 6)
	maximum = 0.068 (at node 11)
Injected flit rate average = 0.04675
	minimum = 0.022 (at node 6)
	maximum = 0.068 (at node 3)
Accepted flit rate average= 0.04775
	minimum = 0.034 (at node 6)
	maximum = 0.068 (at node 11)
Injected packet length average = 1
Accepted packet length average = 1
Total in-flight flits = 16 (0 measured)
latency change    = 0.0374927
throughput change = 0.0274869
Warmed up ...Time used is 1500 cycles
Class 0:
Packet latency average = 29.711
	minimum = 7
	maximum = 209
Network latency average = 29.711
	minimum = 7
	maximum = 209
Slowest packet = 75420
Flit latency average = 29.5083
	minimum = 7
	maximum = 209
Slowest flit = 75420
Fragmentation average = 0
	minimum = 0
	maximum = 0
Injected packet rate average = 0.049875
	minimum = 0.036 (at node 4)
	maximum = 0.064 (at node 13)
Accepted packet rate average = 0.04525
	minimum = 0.032 (at node 0)
	maximum = 0.06 (at node 15)
Injected flit rate average = 0.049875
	minimum = 0.036 (at node 4)
	maximum = 0.064 (at node 13)
Accepted flit rate average= 0.04525
	minimum = 0.032 (at node 0)
	maximum = 0.06 (at node 15)
Injected packet length average = 1
Accepted packet length average = 1
Total in-flight flits = 54 (54 measured)
latency change    = 0.161732
throughput change = 0.0552486
Class 0:
Packet latency average = 29.1111
	minimum = 7
	maximum = 209
Network latency average = 29.1111
	minimum = 7
	maximum = 209
Slowest packet = 75420
Flit latency average = 28.9563
	minimum = 7
	maximum = 209
Slowest flit = 75420
Fragmentation average = 0
	minimum = 0
	maximum = 0
Injected packet rate average = 0.0315625
	minimum = 0.023 (at node 12)
	maximum = 0.042 (at node 13)
Accepted packet rate average = 0.02575
	minimum = 0.017 (at node 0)
	maximum = 0.036 (at node 7)
Injected flit rate average = 0.0315625
	minimum = 0.023 (at node 12)
	maximum = 0.042 (at node 13)
Accepted flit rate average= 0.02575
	minimum = 0.017 (at node 0)
	maximum = 0.036 (at node 7)
Injected packet length average = 1
Accepted packet length average = 1
Total in-flight flits = 125 (125 measured)
latency change    = 0.0206063
throughput change = 0.757282
WARNING: Possible network deadlock.
WARNING: Possible network deadlock.
Class 0:
Packet latency average = 29.1111
	minimum = 7
	maximum = 209
Network latency average = 29.1111
	minimum = 7
	maximum = 209
Slowest packet = 75420
Flit latency average = 28.9563
	minimum = 7
	maximum = 209
Slowest flit = 75420
Fragmentation average = 0
	minimum = 0
	maximum = 0
Injected packet rate average = 0.0210417
	minimum = 0.0153333 (at node 12)
	maximum = 0.028 (at node 13)
Accepted packet rate average = 0.0171667
	minimum = 0.0113333 (at node 0)
	maximum = 0.024 (at node 7)
Injected flit rate average = 0.0210417
	minimum = 0.0153333 (at node 12)
	maximum = 0.028 (at node 13)
Accepted flit rate average= 0.0171667
	minimum = 0.0113333 (at node 0)
	maximum = 0.024 (at node 7)
Injected packet length average = 1
Accepted packet length average = 1
Total in-flight flits = 125 (125 measured)
latency change    = 0
throughput change = 0.5
WARNING: Possible network deadlock.
WARNING: Possible network deadlock.
Class 0:
Packet latency average = 29.1111
	minimum = 7
	maximum = 209
Network latency average = 29.1111
	minimum = 7
	maximum = 209
Slowest packet = 75420
Flit latency average = 28.9563
	minimum = 7
	maximum = 209
Slowest flit = 75420
Fragmentation average = 0
	minimum = 0
	maximum = 0
Injected packet rate average = 0.0157813
	minimum = 0.0115 (at node 12)
	maximum = 0.021 (at node 13)
Accepted packet rate average = 0.012875
	minimum = 0.0085 (at node 0)
	maximum = 0.018 (at node 7)
Injected flit rate average = 0.0157813
	minimum = 0.0115 (at node 12)
	maximum = 0.021 (at node 13)
Accepted flit rate average= 0.012875
	minimum = 0.0085 (at node 0)
	maximum = 0.018 (at node 7)
Injected packet length average = 1
Accepted packet length average = 1
Total in-flight flits = 125 (125 measured)
latency change    = 0
throughput change = 0.333333
WARNING: Possible network deadlock.
WARNING: Possible network deadlock.
Class 0:
Packet latency average = 29.1111
	minimum = 7
	maximum = 209
Network latency average = 29.1111
	minimum = 7
	maximum = 209
Slowest packet = 75420
Flit latency average = 28.9563
	minimum = 7
	maximum = 209
Slowest flit = 75420
Fragmentation average = 0
	minimum = 0
	maximum = 0
Injected packet rate average = 0.012625
	minimum = 0.0092 (at node 12)
	maximum = 0.0168 (at node 13)
Accepted packet rate average = 0.0103
	minimum = 0.0068 (at node 0)
	maximum = 0.0144 (at node 7)
Injected flit rate average = 0.012625
	minimum = 0.0092 (at node 12)
	maximum = 0.0168 (at node 13)
Accepted flit rate average= 0.0103
	minimum = 0.0068 (at node 0)
	maximum = 0.0144 (at node 7)
Injected packet length average = 1
Accepted packet length average = 1
Total in-flight flits = 125 (125 measured)
latency change    = 0
throughput change = 0.25
WARNING: Possible network deadlock.
WARNING: Possible network deadlock.
Class 0:
Packet latency average = 29.1111
	minimum = 7
	maximum = 209
Network latency average = 29.1111
	minimum = 7
	maximum = 209
Slowest packet = 75420
Flit latency average = 28.9563
	minimum = 7
	maximum = 209
Slowest flit = 75420
Fragmentation average = 0
	minimum = 0
	maximum = 0
Injected packet rate average = 0.0105208
	minimum = 0.00766667 (at node 12)
	maximum = 0.014 (at node 13)
Accepted packet rate average = 0.00858333
	minimum = 0.00566667 (at node 0)
	maximum = 0.012 (at node 7)
Injected flit rate average = 0.0105208
	minimum = 0.00766667 (at node 12)
	maximum = 0.014 (at node 13)
Accepted flit rate average= 0.00858333
	minimum = 0.00566667 (at node 0)
	maximum = 0.012 (at node 7)
Injected packet length average = 1
Accepted packet length average = 1
Total in-flight flits = 125 (125 measured)
latency change    = 0
throughput change = 0.2
Average latency for class 0 exceeded 500 cycles. Aborting simulation.
Too many sample periods needed to converge
Simulation unstable, ending ...
Total run time 1.1158
