BEGIN Configuration File: /tmp/tmp07fc60gt.cfg
topology = mesh;
k = 4;
n = 2;
routing_function = dor;
num_vcs = 4;
vc_buf_size = 4;
wait_for_tail_credit = 1;
vc_allocator = islip;
sw_allocator = islip;
alloc_iters = 1;
credit_delay = 2;
routing_delay = 1;
vc_alloc_delay = 1;
sw_alloc_delay = 1;
input_speedup = 2;
output_speedup = 1;
internal_speedup = 1.0;
traffic = hotspot;
packet_size = 1;
sim_type = latency;
injection_rate = 0.01;
warmup_periods = 3;
sample_period = 500;
sim_count = 50;
seed = 0;
link_failures = 4;
fail_seed = 202;

END Configuration File: /tmp/tmp07fc60gt.cfg
failure at node 4, channel 2 (1/4)
failure at node 13, channel 0 (2/4)
failure at node 6, channel 1 (3/4)
failure at node 11, channel 3 (4/4)
Class 0:
Packet latency average = 16.925
	minimum = 7
	maximum = 28
Network latency average = 16.925
	minimum = 7
	maximum = 28
Slowest packet = 63
Flit latency average = 16.925
	minimum = 7
	maximum = 28
Slowest flit = 63
Fragmentation average = 0
	minimum = 0
	maximum = 0
Injected packet rate average = 0.010375
	minimum = 0.004 (at node 5)
	maximum = 0.016 (at node 9)
Accepted packet rate average = 0.01
	minimum = 0 (at node 0)
	maximum = 0.16 (at node 9)
Injected flit rate average = 0.010375
	minimum = 0.004 (at node 5)
	maximum = 0.016 (at node 9)
Accepted flit rate average= 0.01
	minimum = 0 (at node 0)
	maximum = 0.16 (at node 9)
Injected packet length average = 1
Accepted packet length average = 1
Total in-flight flits = 3 (0 measured)
latency change    = 1
throughput change = 1
Class 0:
Packet latency average = 16.8377
	minimum = 7
	maximum = 28
Network latency average = 16.8377
	minimum = 7
	maximum = 28
Slowest packet = 63
Flit latency average = 16.8377
	minimum = 7
	maximum = 28
Slowest flit = 63
Fragmentation average = 0
	minimum = 0
	maximum = 0
Injected packet rate average = 0.00975
	minimum = 0.004 (at node 11)
	maximum = 0.014 (at node 13)
Accepted packet rate average = 0.009625
	minimum = 0 (at node 0)
	maximum = 0.154 (at node 9)
Injected flit rate average = 0.00975
	minimum = 0.004 (at node 11)
	maximum = 0.014 (at node 13)
Accepted flit rate average= 0.009625
	minimum = 0 (at node 0)
	maximum = 0.154 (at node 9)
Injected packet length average = 1
Accepted packet length average = 1
Total in-flight flits = 2 (0 measured)
latency change    = 0.00518704
throughput change = 0.038961
Class 0:
Packet latency average = 17.3714
	minimum = 7
	maximum = 28
Network latency average = 17.3714
	minimum = 7
	maximum = 28
Slowest packet = 213
Flit latency average = 17.3714
	minimum = 7
	maximum = 28
Slowest flit = 213
Fragmentation average = 0
	minimum = 0
	maximum = 0
Injected packet rate average = 0.00925
	minimum = 0.002 (at node 11)
	maximum = 0.016 (at node 10)
Accepted packet rate average = 0.00875
	minimum = 0 (at node 0)
	maximum = 0.14 (at node 9)
Injected flit rate average = 0.00925
	minimum = 0.002 (at node 11)
	maximum = 0.016 (at node 10)
Accepted flit rate average= 0.00875
	minimum = 0 (at node 0)
	maximum = 0.14 (at node 9)
Injected packet length average = 1
Accepted packet length average = 1
Total in-flight flits = 6 (0 measured)
latency change    = 0.0307267
throughput change = 0.1
Warmed up ...Time used is 1500 cycles
Class 0:
Packet latency average = 16.84
	minimum = 7
	maximum = 27
Network latency average = 16.84
	minimum = 7
	maximum = 27
Slowest packet = 259
Flit latency average = 17.2346
	minimum = 7
	maximum = 27
Slowest flit = 223
Fragmentation average = 0
	minimum = 0
	maximum = 0
Injected packet rate average = 0.00975
	minimum = 0.004 (at node 3)
	maximum = 0.018 (at node 8)
Accepted packet rate average = 0.010125
	minimum = 0 (at node 0)
	maximum = 0.162 (at node 9)
Injected flit rate average = 0.00975
	minimum = 0.004 (at node 3)
	maximum = 0.018 (at node 8)
Accepted flit rate average= 0.010125
	minimum = 0 (at node 0)
	maximum = 0.162 (at node 9)
Injected packet length average = 1
Accepted packet length average = 1
Total in-flight flits = 3 (3 measured)
latency change    = 0.0315575
throughput change = 0.135802
Class 0:
Packet latency average = 16.7124
	minimum = 7
	maximum = 27
Network latency average = 16.7124
	minimum = 7
	maximum = 27
Slowest packet = 259
Flit latency average = 16.9182
	minimum = 7
	maximum = 27
Slowest flit = 223
Fragmentation average = 0
	minimum = 0
	maximum = 0
Injected packet rate average = 0.0096875
	minimum = 0.005 (at node 7)
	maximum = 0.016 (at node 13)
Accepted packet rate average = 0.0099375
	minimum = 0 (at node 0)
	maximum = 0.159 (at node 9)
Injected flit rate average = 0.0096875
	minimum = 0.005 (at node 7)
	maximum = 0.016 (at node 13)
Accepted flit rate average= 0.0099375
	minimum = 0 (at node 0)
	maximum = 0.159 (at node 9)
Injected packet length average = 1
Accepted packet length average = 1
Total in-flight flits = 2 (2 measured)
latency change    = 0.00763395
throughput change = 0.0188679
Class 0:
Packet latency average = 16.9496
	minimum = 7
	maximum = 30
Network latency average = 16.9496
	minimum = 7
	maximum = 30
Slowest packet = 390
Flit latency average = 17.0779
	minimum = 7
	maximum = 30
Slowest flit = 390
Fragmentation average = 0
	minimum = 0
	maximum = 0
Injected packet rate average = 0.00991667
	minimum = 0.00733333 (at node 7)
	maximum = 0.0133333 (at node 13)
Accepted packet rate average = 0.0101667
	minimum = 0 (at node 0)
	maximum = 0.162667 (at node 9)
Injected flit rate average = 0.00991667
	minimum = 0.00733333 (at node 7)
	maximum = 0.0133333 (at node 13)
Accepted flit rate average= 0.0101667
	minimum = 0 (at node 0)
	maximum = 0.162667 (at node 9)
Injected packet length average = 1
Accepted packet length average = 1
Total in-flight flits = 0 (0 measured)
latency change    = 0.0139922
throughput change = 0.022541
Class 0:
Packet latency average = 17.1019
	minimum = 7
	maximum = 30
Network latency average = 17.1019
	minimum = 7
	maximum = 30
Slowest packet = 390
Flit latency average = 17.1969
	minimum = 7
	maximum = 30
Slowest flit = 390
Fragmentation average = 0
	minimum = 0
	maximum = 0
Injected packet rate average = 0.00990625
	minimum = 0.0075 (at node 1)
	maximum = 0.013 (at node 8)
Accepted packet rate average = 0.01
	minimum = 0 (at node 0)
	maximum = 0.16 (at node 9)
Injected flit rate average = 0.00990625
	minimum = 0.0075 (at node 1)
	maximum = 0.013 (at node 8)
Accepted flit rate average= 0.01
	minimum = 0 (at node 0)
	maximum = 0.16 (at node 9)
Injected packet length average = 1
Accepted packet length average = 1
Total in-flight flits = 3 (3 measured)
latency change    = 0.00890725
throughput change = 0.0166667
Draining all recorded packets ...
Draining remaining packets ...
Time taken is 3545 cycles
Class 0:
Packet latency average = 17.3968
	minimum = 7
	maximum = 28
Network latency average = 17.3968
	minimum = 7
	maximum = 28
Slowest packet = 581
Flit latency average = 17.3968
	minimum = 7
	maximum = 28
Slowest flit = 581
Fragmentation average = 0
	minimum = 0
	maximum = 0
Injected packet rate average = 0.008125
	minimum = 0.004 (at node 5)
	maximum = 0.016 (at node 11)
Accepted packet rate average = 0.007875
	minimum = 0 (at node 0)
	maximum = 0.126 (at node 9)
Injected flit rate average = 0.008125
	minimum = 0.004 (at node 5)
	maximum = 0.016 (at node 11)
Accepted flit rate average= 0.007875
	minimum = 0 (at node 0)
	maximum = 0.126 (at node 9)
Injected packet length average = 1
Accepted packet length average = 1
Total in-flight flits = 2 (0 measured)
latency change    = 1
throughput change = 1
Class 0:
Packet latency average = 16.9783
	minimum = 7
	maximum = 28
Network latency average = 16.9783
	minimum = 7
	maximum = 28
Slowest packet = 581
Flit latency average = 16.9783
	minimum = 7
	maximum = 28
Slowest flit = 581
Fragmentation average = 0
	minimum = 0
	maximum = 0
Injected packet rate average = 0.008875
	minimum = 0.006 (at node 8)
	maximum = 0.016 (at node 10)
Accepted packet rate average = 0.008625
	minimum = 0 (at node 0)
	maximum = 0.138 (at node 9)
Injected flit rate average = 0.008875
	minimum = 0.006 (at node 8)
	maximum = 0.016 (at node 10)
Accepted flit rate average= 0.008625
	minimum = 0 (at node 0)
	maximum = 0.138 (at node 9)
Injected packet length average = 1
Accepted packet length average = 1
Total in-flight flits = 4 (0 measured)
latency change    = 0.024653
throughput change = 0.0869565
Class 0:
Packet latency average = 17.3286
	minimum = 7
	maximum = 27
Network latency average = 17.3286
	minimum = 7
	maximum = 27
Slowest packet = 706
Flit latency average = 17.3286
	minimum = 7
	maximum = 27
Slowest flit = 706
Fragmentation average = 0
	minimum = 0
	maximum = 0
Injected packet rate average = 0.008625
	minimum = 0.004 (at node 9)
	maximum = 0.016 (at node 6)
Accepted packet rate average = 0.00875
	minimum = 0 (at node 0)
	maximum = 0.14 (at node 9)
Injected flit rate average = 0.008625
	minimum = 0.004 (at node 9)
	maximum = 0.016 (at node 6)
Accepted flit rate average= 0.00875
	minimum = 0 (at node 0)
	maximum = 0.14 (at node 9)
Injected packet length average = 1
Accepted packet length average = 1
Total in-flight flits = 3 (0 measured)
latency change    = 0.0202158
throughput change = 0.0142857
Warmed up ...Time used is 1500 cycles
Class 0:
Packet latency average = 17.5625
	minimum = 7
	maximum = 29
Network latency average = 17.5625
	minimum = 7
	maximum = 29
Slowest packet = 764
Flit latency average = 17.6024
	minimum = 7
	maximum = 29
Slowest flit = 764
Fragmentation average = 0
	minimum = 0
	maximum = 0
Injected packet rate average = 0.01075
	minimum = 0.002 (at node 2)
	maximum = 0.02 (at node 15)
Accepted packet rate average = 0.010375
	minimum = 0 (at node 0)
	maximum = 0.166 (at node 9)
Injected flit rate average = 0.01075
	minimum = 0.002 (at node 2)
	maximum = 0.02 (at node 15)
Accepted flit rate average= 0.010375
	minimum = 0 (at node 0)
	maximum = 0.166 (at node 9)
Injected packet length average = 1
Accepted packet length average = 1
Total in-flight flits = 6 (6 measured)
latency change    = 0.0133198
throughput change = 0.156627
Class 0:
Packet latency average = 17.3718
	minimum = 7
	maximum = 30
Network latency average = 17.3718
	minimum = 7
	maximum = 30
Slowest packet = 844
Flit latency average = 17.3962
	minimum = 7
	maximum = 30
Slowest flit = 844
Fragmentation average = 0
	minimum = 0
	maximum = 0
Injected packet rate average = 0.0100625
	minimum = 0.005 (at node 6)
	maximum = 0.016 (at node 3)
Accepted packet rate average = 0.0099375
	minimum = 0 (at node 0)
	maximum = 0.159 (at node 9)
Injected flit rate average = 0.0100625
	minimum = 0.005 (at node 6)
	maximum = 0.016 (at node 3)
Accepted flit rate average= 0.0099375
	minimum = 0 (at node 0)
	maximum = 0.159 (at node 9)
Injected packet length average = 1
Accepted packet length average = 1
Total in-flight flits = 5 (5 measured)
latency change    = 0.0109779
throughput change = 0.0440252
Class 0:
Packet latency average = 17.4625
	minimum = 7
	maximum = 30
Network latency average = 17.4625
	minimum = 7
	maximum = 30
Slowest packet = 844
Flit latency average = 17.4774
	minimum = 7
	maximum = 30
Slowest flit = 844
Fragmentation average = 0
	minimum = 0
	maximum = 0
Injected packet rate average = 0.01025
	minimum = 0.006 (at node 10)
	maximum = 0.0173333 (at node 3)
Accepted packet rate average = 0.010125
	minimum = 0 (at node 0)
	maximum = 0.162 (at node 9)
Injected flit rate average = 0.01025
	minimum = 0.006 (at node 10)
	maximum = 0.0173333 (at node 3)
Accepted flit rate average= 0.010125
	minimum = 0 (at node 0)
	maximum = 0.162 (at node 9)
Injected packet length average = 1
Accepted packet length average = 1
Total in-flight flits = 6 (6 measured)
latency change    = 0.00519428
throughput change = 0.0185185
Class 0:
Packet latency average = 17.2429
	minimum = 7
	maximum = 33
Network latency average = 17.2429
	minimum = 7
	maximum = 33
Slowest packet = 1010
Flit latency average = 17.2563
	minimum = 7
	maximum = 33
Slowest flit = 1010
Fragmentation average = 0
	minimum = 0
	maximum = 0
Injected packet rate average = 0.01
	minimum = 0.0055 (at node 2)
	maximum = 0.016 (at node 13)
Accepted packet rate average = 0.01
	minimum = 0 (at node 0)
	maximum = 0.16 (at node 9)
Injected flit rate average = 0.01
	minimum = 0.0055 (at node 2)
	maximum = 0.016 (at node 13)
Accepted flit rate average= 0.01
	minimum = 0 (at node 0)
	maximum = 0.16 (at node 9)
Injected packet length average = 1
Accepted packet length average = 1
Total in-flight flits = 3 (3 measured)
latency change    = 0.0127355
throughput change = 0.0125
Draining all recorded packets ...
Draining remaining packets ...
Time taken is 3531 cycles
Class 0:
Packet latency average = 17.7733
	minimum = 7
	maximum = 27
Network latency average = 17.7733
	minimum = 7
	maximum = 27
Slowest packet = 1094
Flit latency average = 17.7733
	minimum = 7
	maximum = 27
Slowest flit = 1094
Fragmentation average = 0
	minimum = 0
	maximum = 0
Injected packet rate average = 0.01025
	minimum = 0.004 (at node 8)
	maximum = 0.016 (at node 1)
Accepted packet rate average = 0.009375
	minimum = 0 (at node 0)
	maximum = 0.15 (at node 9)
Injected flit rate average = 0.01025
	minimum = 0.004 (at node 8)
	maximum = 0.016 (at node 1)
Accepted flit rate average= 0.009375
	minimum = 0 (at node 0)
	maximum = 0.15 (at node 9)
Injected packet length average = 1
Accepted packet length average = 1
Total in-flight flits = 7 (0 measured)
latency change    = 1
throughput change = 1
Class 0:
Packet latency average = 17.4852
	minimum = 7
	maximum = 27
Network latency average = 17.4852
	minimum = 7
	maximum = 27
Slowest packet = 1094
Flit latency average = 17.4852
	minimum = 7
	maximum = 27
Slowest flit = 1094
Fragmentation average = 0
	minimum = 0
	maximum = 0
Injected packet rate average = 0.01075
	minimum = 0.006 (at node 8)
	maximum = 0.018 (at node 1)
Accepted packet rate average = 0.0105625
	minimum = 0 (at node 0)
	maximum = 0.169 (at node 9)
Injected flit rate average = 0.01075
	minimum = 0.006 (at node 8)
	maximum = 0.018 (at node 1)
Accepted flit rate average= 0.0105625
	minimum = 0 (at node 0)
	maximum = 0.169 (at node 9)
Injected packet length average = 1
Accepted packet length average = 1
Total in-flight flits = 3 (0 measured)
latency change    = 0.0164783
throughput change = 0.112426
Class 0:
Packet latency average = 17.49
	minimum = 7
	maximum = 27
Network latency average = 17.49
	minimum = 7
	maximum = 27
Slowest packet = 1271
Flit latency average = 17.49
	minimum = 7
	maximum = 27
Slowest flit = 1271
Fragmentation average = 0
	minimum = 0
	maximum = 0
Injected packet rate average = 0.012125
	minimum = 0.006 (at node 8)
	maximum = 0.018 (at node 9)
Accepted packet rate average = 0.0125
	minimum = 0 (at node 0)
	maximum = 0.2 (at node 9)
Injected flit rate average = 0.012125
	minimum = 0.006 (at node 8)
	maximum = 0.018 (at node 9)
Accepted flit rate average= 0.0125
	minimum = 0 (at node 0)
	maximum = 0.2 (at node 9)
Injected packet length average = 1
Accepted packet length average = 1
Total in-flight flits = 0 (0 measured)
latency change    = 0.000274037
throughput change = 0.155
Warmed up ...Time used is 1500 cycles
Class 0:
Packet latency average = 16.7931
	minimum = 7
	maximum = 27
Network latency average = 16.7931
	minimum = 7
	maximum = 27
Slowest packet = 1375
Flit latency average = 16.7931
	minimum = 7
	maximum = 27
Slowest flit = 1375
Fragmentation average = 0
	minimum = 0
	maximum = 0
Injected packet rate average = 0.011375
	minimum = 0.006 (at node 5)
	maximum = 0.016 (at node 1)
Accepted packet rate average = 0.010875
	minimum = 0 (at node 0)
	maximum = 0.174 (at node 9)
Injected flit rate average = 0.011375
	minimum = 0.006 (at node 5)
	maximum = 0.016 (at node 1)
Accepted flit rate average= 0.010875
	minimum = 0 (at node 0)
	maximum = 0.174 (at node 9)
Injected packet length average = 1
Accepted packet length average = 1
Total in-flight flits = 4 (4 measured)
latency change    = 0.041499
throughput change = 0.149425
Class 0:
Packet latency average = 17
	minimum = 7
	maximum = 27
Network latency average = 17
	minimum = 7
	maximum = 27
Slowest packet = 1375
Flit latency average = 17
	minimum = 7
	maximum = 27
Slowest flit = 1375
Fragmentation average = 0
	minimum = 0
	maximum = 0
Injected packet rate average = 0.0105
	minimum = 0.004 (at node 5)
	maximum = 0.016 (at node 7)
Accepted packet rate average = 0.0103125
	minimum = 0 (at node 0)
	maximum = 0.165 (at node 9)
Injected flit rate average = 0.0105
	minimum = 0.004 (at node 5)
	maximum = 0.016 (at node 7)
Accepted flit rate average= 0.0103125
	minimum = 0 (at node 0)
	maximum = 0.165 (at node 9)
Injected packet length average = 1
Accepted packet length average = 1
Total in-flight flits = 3 (3 measured)
latency change    = 0.0121704
throughput change = 0.0545455
Class 0:
Packet latency average = 16.9483
	minimum = 7
	maximum = 27
Network latency average = 16.9483
	minimum = 7
	maximum = 27
Slowest packet = 1375
Flit latency average = 16.9483
	minimum = 7
	maximum = 27
Slowest flit = 1375
Fragmentation average = 0
	minimum = 0
	maximum = 0
Injected packet rate average = 0.00975
	minimum = 0.00466667 (at node 5)
	maximum = 0.014 (at node 10)
Accepted packet rate average = 0.00966667
	minimum = 0 (at node 0)
	maximum = 0.154667 (at node 9)
Injected flit rate average = 0.00975
	minimum = 0.00466667 (at node 5)
	maximum = 0.014 (at node 10)
Accepted flit rate average= 0.00966667
	minimum = 0 (at node 0)
	maximum = 0.154667 (at node 9)
Injected packet length average = 1
Accepted packet length average = 1
Total in-flight flits = 2 (2 measured)
latency change    = 0.00305188
throughput change = 0.0668103
Class 0:
Packet latency average = 16.9676
	minimum = 7
	maximum = 27
Network latency average = 16.9676
	minimum = 7
	maximum = 27
Slowest packet = 1375
Flit latency average = 16.9676
	minimum = 7
	maximum = 27
Slowest flit = 1375
Fragmentation average = 0
	minimum = 0
	maximum = 0
Injected packet rate average = 0.00971875
	minimum = 0.0055 (at node 2)
	maximum = 0.013 (at node 1)
Accepted packet rate average = 0.00965625
	minimum = 0 (at node 0)
	maximum = 0.1545 (at node 9)
Injected flit rate average = 0.00971875
	minimum = 0.0055 (at node 2)
	maximum = 0.013 (at node 1)
Accepted flit rate average= 0.00965625
	minimum = 0 (at node 0)
	maximum = 0.1545 (at node 9)
Injected packet length average = 1
Accepted packet length average = 1
Total in-flight flits = 2 (2 measured)
latency change    = 0.00114109
throughput change = 0.00107875
Class 0:
Packet latency average = 16.9719
	minimum = 7
	maximum = 27
Network latency average = 16.9719
	minimum = 7
	maximum = 27
Slowest packet = 1375
Flit latency average = 16.9719
	minimum = 7
	maximum = 27
Slowest flit = 1375
Fragmentation average = 0
	minimum = 0
	maximum = 0
Injected packet rate average = 0.00985
	minimum = 0.0064 (at node 2)
	maximum = 0.0136 (at node 1)
Accepted packet rate average = 0.0098
	minimum = 0 (at node 0)
	maximum = 0.1568 (at node 9)
Injected flit rate average = 0.00985
	minimum = 0.0064 (at node 2)
	maximum = 0.0136 (at node 1)
Accepted flit rate average= 0.0098
	minimum = 0 (at node 0)
	maximum = 0.1568 (at node 9)
Injected packet length average = 1
Accepted packet length average = 1
Total in-flight flits = 2 (2 measured)
latency change    = 0.000253432
throughput change = 0.0146684
Class 0:
Packet latency average = 17.1203
	minimum = 7
	maximum = 28
Network latency average = 17.1203
	minimum = 7
	maximum = 28
Slowest packet = 1806
Flit latency average = 17.1203
	minimum = 7
	maximum = 28
Slowest flit = 1806
Fragmentation average = 0
	minimum = 0
	maximum = 0
Injected packet rate average = 0.0100417
	minimum = 0.00766667 (at node 5)
	maximum = 0.013 (at node 1)
Accepted packet rate average = 0.0100417
	minimum = 0 (at node 0)
	maximum = 0.160667 (at node 9)
Injected flit rate average = 0.0100417
	minimum = 0.00766667 (at node 5)
	maximum = 0.013 (at node 1)
Accepted flit rate average= 0.0100417
	minimum = 0 (at node 0)
	maximum = 0.160667 (at node 9)
Injected packet length average = 1
Accepted packet length average = 1
Total in-flight flits = 0 (0 measured)
latency change    = 0.00866766
throughput change = 0.0240664
Draining all recorded packets ...
Draining remaining packets ...
Time taken is 4501 cycles
Class 0:
Packet latency average = 17.075
	minimum = 7
	maximum = 27
Network latency average = 17.075
	minimum = 7
	maximum = 27
Slowest packet = 1867
Flit latency average = 17.075
	minimum = 7
	maximum = 27
Slowest flit = 1867
Fragmentation average = 0
	minimum = 0
	maximum = 0
Injected packet rate average = 0.010375
	minimum = 0.006 (at node 3)
	maximum = 0.018 (at node 7)
Accepted packet rate average = 0.01
	minimum = 0 (at node 0)
	maximum = 0.16 (at node 9)
Injected flit rate average = 0.010375
	minimum = 0.006 (at node 3)
	maximum = 0.018 (at node 7)
Accepted flit rate average= 0.01
	minimum = 0 (at node 0)
	maximum = 0.16 (at node 9)
Injected packet length average = 1
Accepted packet length average = 1
Total in-flight flits = 3 (0 measured)
latency change    = 1
throughput change = 1
Class 0:
Packet latency average = 17.7262
	minimum = 7
	maximum = 32
Network latency average = 17.7262
	minimum = 7
	maximum = 32
Slowest packet = 1957
Flit latency average = 17.7262
	minimum = 7
	maximum = 32
Slowest flit = 1957
Fragmentation average = 0
	minimum = 0
	maximum = 0
Injected packet rate average = 0.0105625
	minimum = 0.006 (at node 9)
	maximum = 0.018 (at node 7)
Accepted packet rate average = 0.0105
	minimum = 0 (at node 0)
	maximum = 0.168 (at node 9)
Injected flit rate average = 0.0105625
	minimum = 0.006 (at node 9)
	maximum = 0.018 (at node 7)
Accepted flit rate average= 0.0105
	minimum = 0 (at node 0)
	maximum = 0.168 (at node 9)
Injected packet length average = 1
Accepted packet length average = 1
Total in-flight flits = 1 (0 measured)
latency change    = 0.0367361
throughput change = 0.047619
Class 0:
Packet latency average = 16.6875
	minimum = 7
	maximum = 27
Network latency average = 16.6875
	minimum = 7
	maximum = 27
Slowest packet = 2005
Flit latency average = 16.6875
	minimum = 7
	maximum = 27
Slowest flit = 2005
Fragmentation average = 0
	minimum = 0
	maximum = 0
Injected packet rate average = 0.01
	minimum = 0.008 (at node 0)
	maximum = 0.016 (at node 13)
Accepted packet rate average = 0.01
	minimum = 0 (at node 0)
	maximum = 0.16 (at node 9)
Injected flit rate average = 0.01
	minimum = 0.008 (at node 0)
	maximum = 0.016 (at node 13)
Accepted flit rate average= 0.01
	minimum = 0 (at node 0)
	maximum = 0.16 (at node 9)
Injected packet length average = 1
Accepted packet length average = 1
Total in-flight flits = 1 (0 measured)
latency change    = 0.0622436
throughput change = 0.05
Warmed up ...Time used is 1500 cycles
Class 0:
Packet latency average = 16.2976
	minimum = 7
	maximum = 27
Network latency average = 16.2976
	minimum = 7
	maximum = 27
Slowest packet = 2137
Flit latency average = 16.3647
	minimum = 7
	maximum = 27
Slowest flit = 2137
Fragmentation average = 0
	minimum = 0
	maximum = 0
Injected packet rate average = 0.011
	minimum = 0 (at node 14)
	maximum = 0.02 (at node 10)
Accepted packet rate average = 0.010625
	minimum = 0 (at node 0)
	maximum = 0.17 (at node 9)
Injected flit rate average = 0.011
	minimum = 0 (at node 14)
	maximum = 0.02 (at node 10)
Accepted flit rate average= 0.010625
	minimum = 0 (at node 0)
	maximum = 0.17 (at node 9)
Injected packet length average = 1
Accepted packet length average = 1
Total in-flight flits = 4 (4 measured)
latency change    = 0.0239226
throughput change = 0.0588235
Class 0:
Packet latency average = 16.9487
	minimum = 7
	maximum = 27
Network latency average = 16.9487
	minimum = 7
	maximum = 27
Slowest packet = 2137
Flit latency average = 16.9809
	minimum = 7
	maximum = 27
Slowest flit = 2137
Fragmentation average = 0
	minimum = 0
	maximum = 0
Injected packet rate average = 0.0100625
	minimum = 0.005 (at node 14)
	maximum = 0.014 (at node 6)
Accepted packet rate average = 0.0098125
	minimum = 0 (at node 0)
	maximum = 0.157 (at node 9)
Injected flit rate average = 0.0100625
	minimum = 0.005 (at node 14)
	maximum = 0.014 (at node 6)
Accepted flit rate average= 0.0098125
	minimum = 0 (at node 0)
	maximum = 0.157 (at node 9)
Injected packet length average = 1
Accepted packet length average = 1
Total in-flight flits = 5 (5 measured)
latency change    = 0.0384158
throughput change = 0.0828025
Class 0:
Packet latency average = 16.9025
	minimum = 7
	maximum = 28
Network latency average = 16.9025
	minimum = 7
	maximum = 28
Slowest packet = 2313
Flit latency average = 16.9241
	minimum = 7
	maximum = 28
Slowest flit = 2313
Fragmentation average = 0
	minimum = 0
	maximum = 0
Injected packet rate average = 0.00991667
	minimum = 0.00533333 (at node 14)
	maximum = 0.014 (at node 10)
Accepted packet rate average = 0.009875
	minimum = 0 (at node 0)
	maximum = 0.158 (at node 9)
Injected flit rate average = 0.00991667
	minimum = 0.00533333 (at node 14)
	maximum = 0.014 (at node 10)
Accepted flit rate average= 0.009875
	minimum = 0 (at node 0)
	maximum = 0.158 (at node 9)
Injected packet length average = 1
Accepted packet length average = 1
Total in-flight flits = 2 (2 measured)
latency change    = 0.00273187
throughput change = 0.00632911
Class 0:
Packet latency average = 16.8497
	minimum = 7
	maximum = 28
Network latency average = 16.8497
	minimum = 7
	maximum = 28
Slowest packet = 2313
Flit latency average = 16.8664
	minimum = 7
	maximum = 28
Slowest flit = 2313
Fragmentation average = 0
	minimum = 0
	maximum = 0
Injected packet rate average = 0.00965625
	minimum = 0.006 (at node 14)
	maximum = 0.0125 (at node 9)
Accepted packet rate average = 0.00959375
	minimum = 0 (at node 0)
	maximum = 0.1535 (at node 9)
Injected flit rate average = 0.00965625
	minimum = 0.006 (at node 14)
	maximum = 0.0125 (at node 9)
Accepted flit rate average= 0.00959375
	minimum = 0 (at node 0)
	maximum = 0.1535 (at node 9)
Injected packet length average = 1
Accepted packet length average = 1
Total in-flight flits = 3 (3 measured)
latency change    = 0.0031377
throughput change = 0.029316
Class 0:
Packet latency average = 16.7487
	minimum = 7
	maximum = 28
Network latency average = 16.7487
	minimum = 7
	maximum = 28
Slowest packet = 2313
Flit latency average = 16.7621
	minimum = 7
	maximum = 28
Slowest flit = 2313
Fragmentation average = 0
	minimum = 0
	maximum = 0
Injected packet rate average = 0.0098
	minimum = 0.006 (at node 3)
	maximum = 0.0124 (at node 7)
Accepted packet rate average = 0.009775
	minimum = 0 (at node 0)
	maximum = 0.1564 (at node 9)
Injected flit rate average = 0.0098
	minimum = 0.006 (at node 3)
	maximum = 0.0124 (at node 7)
Accepted flit rate average= 0.009775
	minimum = 0 (at node 0)
	maximum = 0.1564 (at node 9)
Injected packet length average = 1
Accepted packet length average = 1
Total in-flight flits = 2 (2 measured)
latency change    = 0.00602764
throughput change = 0.0185422
Draining all recorded packets ...
Draining remaining packets ...
Time taken is 4007 cycles
Class 0:
Packet latency average = 16.4691
	minimum = 7
	maximum = 33
Network latency average = 16.4691
	minimum = 7
	maximum = 33
Slowest packet = 2543
Flit latency average = 16.4691
	minimum = 7
	maximum = 33
Slowest flit = 2543
Fragmentation average = 0
	minimum = 0
	maximum = 0
Injected packet rate average = 0.010375
	minimum = 0.002 (at node 0)
	maximum = 0.016 (at node 8)
Accepted packet rate average = 0.010125
	minimum = 0 (at node 0)
	maximum = 0.162 (at node 9)
Injected flit rate average = 0.010375
	minimum = 0.002 (at node 0)
	maximum = 0.016 (at node 8)
Accepted flit rate average= 0.010125
	minimum = 0 (at node 0)
	maximum = 0.162 (at node 9)
Injected packet length average = 1
Accepted packet length average = 1
Total in-flight flits = 2 (0 measured)
latency change    = 1
throughput change = 1
Class 0:
Packet latency average = 16.6541
	minimum = 7
	maximum = 33
Network latency average = 16.6541
	minimum = 7
	maximum = 33
Slowest packet = 2543
Flit latency average = 16.6541
	minimum = 7
	maximum = 33
Slowest flit = 2543
Fragmentation average = 0
	minimum = 0
	maximum = 0
Injected packet rate average = 0.0101875
	minimum = 0.008 (at node 0)
	maximum = 0.013 (at node 5)
Accepted packet rate average = 0.0099375
	minimum = 0 (at node 0)
	maximum = 0.159 (at node 9)
Injected flit rate average = 0.0101875
	minimum = 0.008 (at node 0)
	maximum = 0.013 (at node 5)
Accepted flit rate average= 0.0099375
	minimum = 0 (at node 0)
	maximum = 0.159 (at node 9)
Injected packet length average = 1
Accepted packet length average = 1
Total in-flight flits = 4 (0 measured)
latency change    = 0.0111055
throughput change = 0.0188679
Class 0:
Packet latency average = 16.9615
	minimum = 7
	maximum = 27
Network latency average = 16.9615
	minimum = 7
	maximum = 27
Slowest packet = 2646
Flit latency average = 16.9615
	minimum = 7
	maximum = 27
Slowest flit = 2646
Fragmentation average = 0
	minimum = 0
	maximum = 0
Injected packet rate average = 0.01
	minimum = 0.004 (at node 4)
	maximum = 0.02 (at node 11)
Accepted packet rate average = 0.00975
	minimum = 0 (at node 0)
	maximum = 0.156 (at node 9)
Injected flit rate average = 0.01
	minimum = 0.004 (at node 4)
	maximum = 0.02 (at node 11)
Accepted flit rate average= 0.00975
	minimum = 0 (at node 0)
	maximum = 0.156 (at node 9)
Injected packet length average = 1
Accepted packet length average = 1
Total in-flight flits = 6 (0 measured)
latency change    = 0.0181263
throughput change = 0.0192308
Warmed up ...Time used is 1500 cycles
Class 0:
Packet latency average = 17.3438
	minimum = 7
	maximum = 27
Network latency average = 17.3438
	minimum = 7
	maximum = 27
Slowest packet = 2722
Flit latency average = 17.3286
	minimum = 7
	maximum = 27
Slowest flit = 2720
Fragmentation average = 0
	minimum = 0
	maximum = 0
Injected packet rate average = 0.00825
	minimum = 0.002 (at node 8)
	maximum = 0.016 (at node 11)
Accepted packet rate average = 0.00875
	minimum = 0 (at node 0)
	maximum = 0.14 (at node 9)
Injected flit rate average = 0.00825
	minimum = 0.002 (at node 8)
	maximum = 0.016 (at node 11)
Accepted flit rate average= 0.00875
	minimum = 0 (at node 0)
	maximum = 0.14 (at node 9)
Injected packet length average = 1
Accepted packet length average = 1
Total in-flight flits = 2 (2 measured)
latency change    = 0.0220374
throughput change = 0.114286
Class 0:
Packet latency average = 16.9859
	minimum = 7
	maximum = 29
Network latency average = 16.9859
	minimum = 7
	maximum = 29
Slowest packet = 2818
Flit latency average = 16.9932
	minimum = 7
	maximum = 29
Slowest flit = 2818
Fragmentation average = 0
	minimum = 0
	maximum = 0
Injected packet rate average = 0.0091875
	minimum = 0.004 (at node 2)
	maximum = 0.015 (at node 11)
Accepted packet rate average = 0.00925
	minimum = 0 (at node 0)
	maximum = 0.148 (at node 9)
Injected flit rate average = 0.0091875
	minimum = 0.004 (at node 2)
	maximum = 0.015 (at node 11)
Accepted flit rate average= 0.00925
	minimum = 0 (at node 0)
	maximum = 0.148 (at node 9)
Injected packet length average = 1
Accepted packet length average = 1
Total in-flight flits = 5 (5 measured)
latency change    = 0.0210665
throughput change = 0.0540541
Class 0:
Packet latency average = 17.1447
	minimum = 7
	maximum = 29
Network latency average = 17.1447
	minimum = 7
	maximum = 29
Slowest packet = 2818
Flit latency average = 17.1453
	minimum = 7
	maximum = 29
Slowest flit = 2818
Fragmentation average = 0
	minimum = 0
	maximum = 0
Injected packet rate average = 0.00958333
	minimum = 0.00466667 (at node 9)
	maximum = 0.0146667 (at node 12)
Accepted packet rate average = 0.00975
	minimum = 0 (at node 0)
	maximum = 0.156 (at node 9)
Injected flit rate average = 0.00958333
	minimum = 0.00466667 (at node 9)
	maximum = 0.0146667 (at node 12)
Accepted flit rate average= 0.00975
	minimum = 0 (at node 0)
	maximum = 0.156 (at node 9)
Injected packet length average = 1
Accepted packet length average = 1
Total in-flight flits = 2 (2 measured)
latency change    = 0.00926356
throughput change = 0.0512821
Class 0:
Packet latency average = 17.0507
	minimum = 7
	maximum = 29
Network latency average = 17.0507
	minimum = 7
	maximum = 29
Slowest packet = 2818
Flit latency average = 17.053
	minimum = 7
	maximum = 29
Slowest flit = 2818
Fragmentation average = 0
	minimum = 0
	maximum = 0
Injected packet rate average = 0.0093125
	minimum = 0.0035 (at node 9)
	maximum = 0.0145 (at node 11)
Accepted packet rate average = 0.0094375
	minimum = 0 (at node 0)
	maximum = 0.151 (at node 9)
Injected flit rate average = 0.0093125
	minimum = 0.0035 (at node 9)
	maximum = 0.0145 (at node 11)
Accepted flit rate average= 0.0094375
	minimum = 0 (at node 0)
	maximum = 0.151 (at node 9)
Injected packet length average = 1
Accepted packet length average = 1
Total in-flight flits = 2 (2 measured)
latency change    = 0.00551657
throughput change = 0.0331126
Class 0:
Packet latency average = 17.2156
	minimum = 7
	maximum = 29
Network latency average = 17.2156
	minimum = 7
	maximum = 29
Slowest packet = 2818
Flit latency average = 17.2149
	minimum = 7
	maximum = 29
Slowest flit = 2818
Fragmentation average = 0
	minimum = 0
	maximum = 0
Injected packet rate average = 0.00935
	minimum = 0.0044 (at node 9)
	maximum = 0.0136 (at node 11)
Accepted packet rate average = 0.009425
	minimum = 0 (at node 0)
	maximum = 0.1508 (at node 9)
Injected flit rate average = 0.00935
	minimum = 0.0044 (at node 9)
	maximum = 0.0136 (at node 11)
Accepted flit rate average= 0.009425
	minimum = 0 (at node 0)
	maximum = 0.1508 (at node 9)
Injected packet length average = 1
Accepted packet length average = 1
Total in-flight flits = 3 (3 measured)
latency change    = 0.00958186
throughput change = 0.00132626
Class 0:
Packet latency average = 17.225
	minimum = 7
	maximum = 29
Network latency average = 17.225
	minimum = 7
	maximum = 29
Slowest packet = 2818
Flit latency average = 17.2242
	minimum = 7
	maximum = 29
Slowest flit = 2818
Fragmentation average = 0
	minimum = 0
	maximum = 0
Injected packet rate average = 0.0091875
	minimum = 0.005 (at node 9)
	maximum = 0.0136667 (at node 11)
Accepted packet rate average = 0.00929167
	minimum = 0 (at node 0)
	maximum = 0.148667 (at node 9)
Injected flit rate average = 0.0091875
	minimum = 0.005 (at node 9)
	maximum = 0.0136667 (at node 11)
Accepted flit rate average= 0.00929167
	minimum = 0 (at node 0)
	maximum = 0.148667 (at node 9)
Injected packet length average = 1
Accepted packet length average = 1
Total in-flight flits = 1 (1 measured)
latency change    = 0.000543778
throughput change = 0.0143498
Draining all recorded packets ...
Draining remaining packets ...
Time taken is 4542 cycles
Class 0:
Packet latency average = 16.7059
	minimum = 7
	maximum = 27
Network latency average = 16.7059
	minimum = 7
	maximum = 27
Slowest packet = 3170
Flit latency average = 16.7059
	minimum = 7
	maximum = 27
Slowest flit = 3170
Fragmentation average = 0
	minimum = 0
	maximum = 0
Injected packet rate average = 0.01075
	minimum = 0.004 (at node 6)
	maximum = 0.022 (at node 10)
Accepted packet rate average = 0.010625
	minimum = 0 (at node 0)
	maximum = 0.17 (at node 9)
Injected flit rate average = 0.01075
	minimum = 0.004 (at node 6)
	maximum = 0.022 (at node 10)
Accepted flit rate average= 0.010625
	minimum = 0 (at node 0)
	maximum = 0.17 (at node 9)
Injected packet length average = 1
Accepted packet length average = 1
Total in-flight flits = 1 (0 measured)
latency change    = 1
throughput change = 1
Class 0:
Packet latency average = 17.2089
	minimum = 7
	maximum = 27
Network latency average = 17.2089
	minimum = 7
	maximum = 27
Slowest packet = 3170
Flit latency average = 17.2089
	minimum = 7
	maximum = 27
Slowest flit = 3170
Fragmentation average = 0
	minimum = 0
	maximum = 0
Injected packet rate average = 0.01
	minimum = 0.004 (at node 6)
	maximum = 0.016 (at node 7)
Accepted packet rate average = 0.009875
	minimum = 0 (at node 0)
	maximum = 0.158 (at node 9)
Injected flit rate average = 0.01
	minimum = 0.004 (at node 6)
	maximum = 0.016 (at node 7)
Accepted flit rate average= 0.009875
	minimum = 0 (at node 0)
	maximum = 0.158 (at node 9)
Injected packet length average = 1
Accepted packet length average = 1
Total in-flight flits = 2 (0 measured)
latency change    = 0.0292279
throughput change = 0.0759494
Class 0:
Packet latency average = 16.7356
	minimum = 7
	maximum = 27
Network latency average = 16.7356
	minimum = 7
	maximum = 27
Slowest packet = 3354
Flit latency average = 16.7356
	minimum = 7
	maximum = 27
Slowest flit = 3354
Fragmentation average = 0
	minimum = 0
	maximum = 0
Injected packet rate average = 0.011
	minimum = 0.004 (at node 2)
	maximum = 0.026 (at node 12)
Accepted packet rate average = 0.010875
	minimum = 0 (at node 0)
	maximum = 0.174 (at node 9)
Injected flit rate average = 0.011
	minimum = 0.004 (at node 2)
	maximum = 0.026 (at node 12)
Accepted flit rate average= 0.010875
	minimum = 0 (at node 0)
	maximum = 0.174 (at node 9)
Injected packet length average = 1
Accepted packet length average = 1
Total in-flight flits = 3 (0 measured)
latency change    = 0.0282767
throughput change = 0.091954
Warmed up ...Time used is 1500 cycles
Class 0:
Packet latency average = 16.9333
	minimum = 7
	maximum = 27
Network latency average = 16.9333
	minimum = 7
	maximum = 27
Slowest packet = 3418
Flit latency average = 16.9355
	minimum = 7
	maximum = 27
Slowest flit = 3418
Fragmentation average = 0
	minimum = 0
	maximum = 0
Injected packet rate average = 0.011375
	minimum = 0.004 (at node 1)
	maximum = 0.02 (at node 0)
Accepted packet rate average = 0.011625
	minimum = 0 (at node 0)
	maximum = 0.186 (at node 9)
Injected flit rate average = 0.011375
	minimum = 0.004 (at node 1)
	maximum = 0.02 (at node 0)
Accepted flit rate average= 0.011625
	minimum = 0 (at node 0)
	maximum = 0.186 (at node 9)
Injected packet length average = 1
Accepted packet length average = 1
Total in-flight flits = 1 (1 measured)
latency change    = 0.0116753
throughput change = 0.0645161
Class 0:
Packet latency average = 17.1071
	minimum = 7
	maximum = 28
Network latency average = 17.1071
	minimum = 7
	maximum = 28
Slowest packet = 3537
Flit latency average = 17.1053
	minimum = 7
	maximum = 28
Slowest flit = 3537
Fragmentation average = 0
	minimum = 0
	maximum = 0
Injected packet rate average = 0.0105625
	minimum = 0.005 (at node 12)
	maximum = 0.019 (at node 14)
Accepted packet rate average = 0.0106875
	minimum = 0 (at node 0)
	maximum = 0.171 (at node 9)
Injected flit rate average = 0.0105625
	minimum = 0.005 (at node 12)
	maximum = 0.019 (at node 14)
Accepted flit rate average= 0.0106875
	minimum = 0 (at node 0)
	maximum = 0.171 (at node 9)
Injected packet length average = 1
Accepted packet length average = 1
Total in-flight flits = 1 (1 measured)
latency change    = 0.0101601
throughput change = 0.0877193
Class 0:
Packet latency average = 16.9391
	minimum = 7
	maximum = 28
Network latency average = 16.9391
	minimum = 7
	maximum = 28
Slowest packet = 3537
Flit latency average = 16.9399
	minimum = 7
	maximum = 28
Slowest flit = 3537
Fragmentation average = 0
	minimum = 0
	maximum = 0
Injected packet rate average = 0.009625
	minimum = 0.00466667 (at node 12)
	maximum = 0.0146667 (at node 14)
Accepted packet rate average = 0.00970833
	minimum = 0 (at node 0)
	maximum = 0.155333 (at node 9)
Injected flit rate average = 0.009625
	minimum = 0.00466667 (at node 12)
	maximum = 0.0146667 (at node 14)
Accepted flit rate average= 0.00970833
	minimum = 0 (at node 0)
	maximum = 0.155333 (at node 9)
Injected packet length average = 1
Accepted packet length average = 1
Total in-flight flits = 1 (1 measured)
latency change    = 0.0099186
throughput change = 0.100858
Class 0:
Packet latency average = 16.9628
	minimum = 7
	maximum = 28
Network latency average = 16.9628
	minimum = 7
	maximum = 28
Slowest packet = 3537
Flit latency average = 16.9632
	minimum = 7
	maximum = 28
Slowest flit = 3537
Fragmentation average = 0
	minimum = 0
	maximum = 0
Injected packet rate average = 0.00934375
	minimum = 0.0055 (at node 2)
	maximum = 0.013 (at node 11)
Accepted packet rate average = 0.00934375
	minimum = 0 (at node 0)
	maximum = 0.1495 (at node 9)
Injected flit rate average = 0.00934375
	minimum = 0.0055 (at node 2)
	maximum = 0.013 (at node 11)
Accepted flit rate average= 0.00934375
	minimum = 0 (at node 0)
	maximum = 0.1495 (at node 9)
Injected packet length average = 1
Accepted packet length average = 1
Total in-flight flits = 3 (3 measured)
latency change    = 0.00139761
throughput change = 0.039019
Class 0:
Packet latency average = 16.8841
	minimum = 7
	maximum = 28
Network latency average = 16.8841
	minimum = 7
	maximum = 28
Slowest packet = 3537
Flit latency average = 16.885
	minimum = 7
	maximum = 28
Slowest flit = 3537
Fragmentation average = 0
	minimum = 0
	maximum = 0
Injected packet rate average = 0.00935
	minimum = 0.0056 (at node 2)
	maximum = 0.014 (at node 11)
Accepted packet rate average = 0.00935
	minimum = 0 (at node 0)
	maximum = 0.1496 (at node 9)
Injected flit rate average = 0.00935
	minimum = 0.0056 (at node 2)
	maximum = 0.014 (at node 11)
Accepted flit rate average= 0.00935
	minimum = 0 (at node 0)
	maximum = 0.1496 (at node 9)
Injected packet length average = 1
Accepted packet length average = 1
Total in-flight flits = 3 (3 measured)
latency change    = 0.00466361
throughput change = 0.000668449
Class 0:
Packet latency average = 16.969
	minimum = 7
	maximum = 28
Network latency average = 16.969
	minimum = 7
	maximum = 28
Slowest packet = 3537
Flit latency average = 16.9692
	minimum = 7
	maximum = 28
Slowest flit = 3537
Fragmentation average = 0
	minimum = 0
	maximum = 0
Injected packet rate average = 0.0094375
	minimum = 0.00633333 (at node 2)
	maximum = 0.0136667 (at node 11)
Accepted packet rate average = 0.00947917
	minimum = 0 (at node 0)
	maximum = 0.151667 (at node 9)
Injected flit rate average = 0.0094375
	minimum = 0.00633333 (at node 2)
	maximum = 0.0136667 (at node 11)
Accepted flit rate average= 0.00947917
	minimum = 0 (at node 0)
	maximum = 0.151667 (at node 9)
Injected packet length average = 1
Accepted packet length average = 1
Total in-flight flits = 1 (1 measured)
latency change    = 0.00500497
throughput change = 0.0136264
Draining all recorded packets ...
Draining remaining packets ...
Time taken is 4519 cycles
Class 0:
Packet latency average = 17.0135
	minimum = 7
	maximum = 27
Network latency average = 17.0135
	minimum = 7
	maximum = 27
Slowest packet = 3882
Flit latency average = 17.0135
	minimum = 7
	maximum = 27
Slowest flit = 3882
Fragmentation average = 0
	minimum = 0
	maximum = 0
Injected packet rate average = 0.0095
	minimum = 0 (at node 10)
	maximum = 0.02 (at node 14)
Accepted packet rate average = 0.00925
	minimum = 0 (at node 0)
	maximum = 0.148 (at node 9)
Injected flit rate average = 0.0095
	minimum = 0 (at node 10)
	maximum = 0.02 (at node 14)
Accepted flit rate average= 0.00925
	minimum = 0 (at node 0)
	maximum = 0.148 (at node 9)
Injected packet length average = 1
Accepted packet length average = 1
Total in-flight flits = 2 (0 measured)
latency change    = 1
throughput change = 1
Class 0:
Packet latency average = 17.1962
	minimum = 7
	maximum = 27
Network latency average = 17.1962
	minimum = 7
	maximum = 27
Slowest packet = 3882
Flit latency average = 17.1962
	minimum = 7
	maximum = 27
Slowest flit = 3882
Fragmentation average = 0
	minimum = 0
	maximum = 0
Injected packet rate average = 0.0101875
	minimum = 0.004 (at node 10)
	maximum = 0.016 (at node 14)
Accepted packet rate average = 0.009875
	minimum = 0 (at node 0)
	maximum = 0.158 (at node 9)
Injected flit rate average = 0.0101875
	minimum = 0.004 (at node 10)
	maximum = 0.016 (at node 14)
Accepted flit rate average= 0.009875
	minimum = 0 (at node 0)
	maximum = 0.158 (at node 9)
Injected packet length average = 1
Accepted packet length average = 1
Total in-flight flits = 5 (0 measured)
latency change    = 0.0106238
throughput change = 0.0632911
Class 0:
Packet latency average = 17.5055
	minimum = 7
	maximum = 31
Network latency average = 17.5055
	minimum = 7
	maximum = 31
Slowest packet = 4039
Flit latency average = 17.5055
	minimum = 7
	maximum = 31
Slowest flit = 4039
Fragmentation average = 0
	minimum = 0
	maximum = 0
Injected packet rate average = 0.011
	minimum = 0.006 (at node 2)
	maximum = 0.018 (at node 0)
Accepted packet rate average = 0.011375
	minimum = 0 (at node 0)
	maximum = 0.182 (at node 9)
Injected flit rate average = 0.011
	minimum = 0.006 (at node 2)
	maximum = 0.018 (at node 0)
Accepted flit rate average= 0.011375
	minimum = 0 (at node 0)
	maximum = 0.182 (at node 9)
Injected packet length average = 1
Accepted packet length average = 1
Total in-flight flits = 2 (0 measured)
latency change    = 0.0176683
throughput change = 0.131868
Warmed up ...Time used is 1500 cycles
Class 0:
Packet latency average = 17.1667
	minimum = 7
	maximum = 28
Network latency average = 17.1667
	minimum = 7
	maximum = 28
Slowest packet = 4176
Flit latency average = 17.0882
	minimum = 7
	maximum = 28
Slowest flit = 4176
Fragmentation average = 0
	minimum = 0
	maximum = 0
Injected packet rate average = 0.00825
	minimum = 0.002 (at node 6)
	maximum = 0.014 (at node 2)
Accepted packet rate average = 0.0085
	minimum = 0 (at node 0)
	maximum = 0.136 (at node 9)
Injected flit rate average = 0.00825
	minimum = 0.002 (at node 6)
	maximum = 0.014 (at node 2)
Accepted flit rate average= 0.0085
	minimum = 0 (at node 0)
	maximum = 0.136 (at node 9)
Injected packet length average = 1
Accepted packet length average = 1
Total in-flight flits = 0 (0 measured)
latency change    = 0.0197375
throughput change = 0.338235
Class 0:
Packet latency average = 17.469
	minimum = 7
	maximum = 30
Network latency average = 17.469
	minimum = 7
	maximum = 30
Slowest packet = 4186
Flit latency average = 17.4286
	minimum = 7
	maximum = 30
Slowest flit = 4186
Fragmentation average = 0
	minimum = 0
	maximum = 0
Injected packet rate average = 0.0093125
	minimum = 0.005 (at node 7)
	maximum = 0.014 (at node 2)
Accepted packet rate average = 0.0091875
	minimum = 0 (at node 0)
	maximum = 0.147 (at node 9)
Injected flit rate average = 0.0093125
	minimum = 0.005 (at node 7)
	maximum = 0.014 (at node 2)
Accepted flit rate average= 0.0091875
	minimum = 0 (at node 0)
	maximum = 0.147 (at node 9)
Injected packet length average = 1
Accepted packet length average = 1
Total in-flight flits = 4 (4 measured)
latency change    = 0.0173049
throughput change = 0.0748299
Class 0:
Packet latency average = 16.9869
	minimum = 7
	maximum = 30
Network latency average = 16.9869
	minimum = 7
	maximum = 30
Slowest packet = 4186
Flit latency average = 16.9654
	minimum = 7
	maximum = 30
Slowest flit = 4186
Fragmentation average = 0
	minimum = 0
	maximum = 0
Injected packet rate average = 0.00966667
	minimum = 0.006 (at node 7)
	maximum = 0.0166667 (at node 8)
Accepted packet rate average = 0.009625
	minimum = 0 (at node 0)
	maximum = 0.154 (at node 9)
Injected flit rate average = 0.00966667
	minimum = 0.006 (at node 7)
	maximum = 0.0166667 (at node 8)
Accepted flit rate average= 0.009625
	minimum = 0 (at node 0)
	maximum = 0.154 (at node 9)
Injected packet length average = 1
Accepted packet length average = 1
Total in-flight flits = 3 (3 measured)
latency change    = 0.0283787
throughput change = 0.0454545
Class 0:
Packet latency average = 16.8365
	minimum = 7
	maximum = 30
Network latency average = 16.8365
	minimum = 7
	maximum = 30
Slowest packet = 4186
Flit latency average = 16.8217
	minimum = 7
	maximum = 30
Slowest flit = 4186
Fragmentation average = 0
	minimum = 0
	maximum = 0
Injected packet rate average = 0.009875
	minimum = 0.0065 (at node 7)
	maximum = 0.014 (at node 8)
Accepted packet rate average = 0.0098125
	minimum = 0 (at node 0)
	maximum = 0.157 (at node 9)
Injected flit rate average = 0.009875
	minimum = 0.0065 (at node 7)
	maximum = 0.014 (at node 8)
Accepted flit rate average= 0.0098125
	minimum = 0 (at node 0)
	maximum = 0.157 (at node 9)
Injected packet length average = 1
Accepted packet length average = 1
Total in-flight flits = 4 (4 measured)
latency change    = 0.00893064
throughput change = 0.0191083
Class 0:
Packet latency average = 16.53
	minimum = 7
	maximum = 30
Network latency average = 16.53
	minimum = 7
	maximum = 30
Slowest packet = 4186
Flit latency average = 16.5199
	minimum = 7
	maximum = 30
Slowest flit = 4186
Fragmentation average = 0
	minimum = 0
	maximum = 0
Injected packet rate average = 0.010025
	minimum = 0.0064 (at node 7)
	maximum = 0.0156 (at node 8)
Accepted packet rate average = 0.01005
	minimum = 0 (at node 0)
	maximum = 0.1608 (at node 9)
Injected flit rate average = 0.010025
	minimum = 0.0064 (at node 7)
	maximum = 0.0156 (at node 8)
Accepted flit rate average= 0.01005
	minimum = 0 (at node 0)
	maximum = 0.1608 (at node 9)
Injected packet length average = 1
Accepted packet length average = 1
Total in-flight flits = 1 (1 measured)
latency change    = 0.0185444
throughput change = 0.0236318
Draining all recorded packets ...
Draining remaining packets ...
Time taken is 4005 cycles
Class 0:
Packet latency average = 16.2987
	minimum = 7
	maximum = 27
Network latency average = 16.2987
	minimum = 7
	maximum = 27
Slowest packet = 4543
Flit latency average = 16.2987
	minimum = 7
	maximum = 27
Slowest flit = 4543
Fragmentation average = 0
	minimum = 0
	maximum = 0
Injected packet rate average = 0.01025
	minimum = 0.002 (at node 2)
	maximum = 0.02 (at node 5)
Accepted packet rate average = 0.009625
	minimum = 0 (at node 0)
	maximum = 0.154 (at node 9)
Injected flit rate average = 0.01025
	minimum = 0.002 (at node 2)
	maximum = 0.02 (at node 5)
Accepted flit rate average= 0.009625
	minimum = 0 (at node 0)
	maximum = 0.154 (at node 9)
Injected packet length average = 1
Accepted packet length average = 1
Total in-flight flits = 5 (0 measured)
latency change    = 1
throughput change = 1
Class 0:
Packet latency average = 16.4737
	minimum = 7
	maximum = 32
Network latency average = 16.4737
	minimum = 7
	maximum = 32
Slowest packet = 4616
Flit latency average = 16.4737
	minimum = 7
	maximum = 32
Slowest flit = 4616
Fragmentation average = 0
	minimum = 0
	maximum = 0
Injected packet rate average = 0.0108125
	minimum = 0.005 (at node 14)
	maximum = 0.02 (at node 5)
Accepted packet rate average = 0.0106875
	minimum = 0 (at node 0)
	maximum = 0.171 (at node 9)
Injected flit rate average = 0.0108125
	minimum = 0.005 (at node 14)
	maximum = 0.02 (at node 5)
Accepted flit rate average= 0.0106875
	minimum = 0 (at node 0)
	maximum = 0.171 (at node 9)
Injected packet length average = 1
Accepted packet length average = 1
Total in-flight flits = 2 (0 measured)
latency change    = 0.010622
throughput change = 0.0994152
Class 0:
Packet latency average = 16.9571
	minimum = 7
	maximum = 29
Network latency average = 16.9571
	minimum = 7
	maximum = 29
Slowest packet = 4724
Flit latency average = 16.9571
	minimum = 7
	maximum = 29
Slowest flit = 4724
Fragmentation average = 0
	minimum = 0
	maximum = 0
Injected packet rate average = 0.008875
	minimum = 0.002 (at node 0)
	maximum = 0.018 (at node 12)
Accepted packet rate average = 0.00875
	minimum = 0 (at node 0)
	maximum = 0.14 (at node 9)
Injected flit rate average = 0.008875
	minimum = 0.002 (at node 0)
	maximum = 0.018 (at node 12)
Accepted flit rate average= 0.00875
	minimum = 0 (at node 0)
	maximum = 0.14 (at node 9)
Injected packet length average = 1
Accepted packet length average = 1
Total in-flight flits = 3 (0 measured)
latency change    = 0.0285106
throughput change = 0.221429
Warmed up ...Time used is 1500 cycles
Class 0:
Packet latency average = 17.4348
	minimum = 7
	maximum = 27
Network latency average = 17.4348
	minimum = 7
	maximum = 27
Slowest packet = 4769
Flit latency average = 17.5694
	minimum = 7
	maximum = 27
Slowest flit = 4758
Fragmentation average = 0
	minimum = 0
	maximum = 0
Injected packet rate average = 0.008875
	minimum = 0.002 (at node 3)
	maximum = 0.016 (at node 2)
Accepted packet rate average = 0.009
	minimum = 0 (at node 0)
	maximum = 0.144 (at node 9)
Injected flit rate average = 0.008875
	minimum = 0.002 (at node 3)
	maximum = 0.016 (at node 2)
Accepted flit rate average= 0.009
	minimum = 0 (at node 0)
	maximum = 0.144 (at node 9)
Injected packet length average = 1
Accepted packet length average = 1
Total in-flight flits = 2 (2 measured)
latency change    = 0.0273958
throughput change = 0.0277778
Class 0:
Packet latency average = 17.5097
	minimum = 7
	maximum = 27
Network latency average = 17.5097
	minimum = 7
	maximum = 27
Slowest packet = 4769
Flit latency average = 17.5696
	minimum = 7
	maximum = 27
Slowest flit = 4758
Fragmentation average = 0
	minimum = 0
	maximum = 0
Injected packet rate average = 0.01
	minimum = 0.004 (at node 9)
	maximum = 0.017 (at node 0)
Accepted packet rate average = 0.009875
	minimum = 0 (at node 0)
	maximum = 0.158 (at node 9)
Injected flit rate average = 0.01
	minimum = 0.004 (at node 9)
	maximum = 0.017 (at node 0)
Accepted flit rate average= 0.009875
	minimum = 0 (at node 0)
	maximum = 0.158 (at node 9)
Injected packet length average = 1
Accepted packet length average = 1
Total in-flight flits = 5 (5 measured)
latency change    = 0.00427734
throughput change = 0.0886076
Class 0:
Packet latency average = 17.2704
	minimum = 7
	maximum = 28
Network latency average = 17.2704
	minimum = 7
	maximum = 28
Slowest packet = 4975
Flit latency average = 17.3136
	minimum = 7
	maximum = 28
Slowest flit = 4975
Fragmentation average = 0
	minimum = 0
	maximum = 0
Injected packet rate average = 0.00991667
	minimum = 0.006 (at node 3)
	maximum = 0.014 (at node 10)
Accepted packet rate average = 0.00983333
	minimum = 0 (at node 0)
	maximum = 0.157333 (at node 9)
Injected flit rate average = 0.00991667
	minimum = 0.006 (at node 3)
	maximum = 0.014 (at node 10)
Accepted flit rate average= 0.00983333
	minimum = 0 (at node 0)
	maximum = 0.157333 (at node 9)
Injected packet length average = 1
Accepted packet length average = 1
Total in-flight flits = 5 (5 measured)
latency change    = 0.0138556
throughput change = 0.00423729
Class 0:
Packet latency average = 17.3249
	minimum = 7
	maximum = 34
Network latency average = 17.3249
	minimum = 7
	maximum = 34
Slowest packet = 5027
Flit latency average = 17.3562
	minimum = 7
	maximum = 34
Slowest flit = 5027
Fragmentation average = 0
	minimum = 0
	maximum = 0
Injected packet rate average = 0.0100625
	minimum = 0.0065 (at node 6)
	maximum = 0.014 (at node 10)
Accepted packet rate average = 0.01
	minimum = 0 (at node 0)
	maximum = 0.16 (at node 9)
Injected flit rate average = 0.0100625
	minimum = 0.0065 (at node 6)
	maximum = 0.014 (at node 10)
Accepted flit rate average= 0.01
	minimum = 0 (at node 0)
	maximum = 0.16 (at node 9)
Injected packet length average = 1
Accepted packet length average = 1
Total in-flight flits = 5 (5 measured)
latency change    = 0.00314777
throughput change = 0.0166667
Class 0:
Packet latency average = 17.2469
	minimum = 7
	maximum = 34
Network latency average = 17.2469
	minimum = 7
	maximum = 34
Slowest packet = 5027
Flit latency average = 17.2725
	minimum = 7
	maximum = 34
Slowest flit = 5027
Fragmentation average = 0
	minimum = 0
	maximum = 0
Injected packet rate average = 0.010025
	minimum = 0.0076 (at node 7)
	maximum = 0.0136 (at node 15)
Accepted packet rate average = 0.01
	minimum = 0 (at node 0)
	maximum = 0.16 (at node 9)
Injected flit rate average = 0.010025
	minimum = 0.0076 (at node 7)
	maximum = 0.0136 (at node 15)
Accepted flit rate average= 0.01
	minimum = 0 (at node 0)
	maximum = 0.16 (at node 9)
Injected packet length average = 1
Accepted packet length average = 1
Total in-flight flits = 4 (4 measured)
latency change    = 0.00452661
throughput change = 0
Draining all recorded packets ...
Draining remaining packets ...
Time taken is 4025 cycles
Class 0:
Packet latency average = 17.4648
	minimum = 7
	maximum = 28
Network latency average = 17.4648
	minimum = 7
	maximum = 28
Slowest packet = 5182
Flit latency average = 17.4648
	minimum = 7
	maximum = 28
Slowest flit = 5182
Fragmentation average = 0
	minimum = 0
	maximum = 0
Injected packet rate average = 0.009
	minimum = 0.004 (at node 2)
	maximum = 0.016 (at node 3)
Accepted packet rate average = 0.008875
	minimum = 0 (at node 0)
	maximum = 0.142 (at node 9)
Injected flit rate average = 0.009
	minimum = 0.004 (at node 2)
	maximum = 0.016 (at node 3)
Accepted flit rate average= 0.008875
	minimum = 0 (at node 0)
	maximum = 0.142 (at node 9)
Injected packet length average = 1
Accepted packet length average = 1
Total in-flight flits = 1 (0 measured)
latency change    = 1
throughput change = 1
Class 0:
Packet latency average = 17.1076
	minimum = 7
	maximum = 28
Network latency average = 17.1076
	minimum = 7
	maximum = 28
Slowest packet = 5182
Flit latency average = 17.1076
	minimum = 7
	maximum = 28
Slowest flit = 5182
Fragmentation average = 0
	minimum = 0
	maximum = 0
Injected packet rate average = 0.0099375
	minimum = 0.006 (at node 0)
	maximum = 0.017 (at node 12)
Accepted packet rate average = 0.009875
	minimum = 0 (at node 0)
	maximum = 0.158 (at node 9)
Injected flit rate average = 0.0099375
	minimum = 0.006 (at node 0)
	maximum = 0.017 (at node 12)
Accepted flit rate average= 0.009875
	minimum = 0 (at node 0)
	maximum = 0.158 (at node 9)
Injected packet length average = 1
Accepted packet length average = 1
Total in-flight flits = 1 (0 measured)
latency change    = 0.0208793
throughput change = 0.101266
Class 0:
Packet latency average = 17.5974
	minimum = 7
	maximum = 29
Network latency average = 17.5974
	minimum = 7
	maximum = 29
Slowest packet = 5376
Flit latency average = 17.5974
	minimum = 7
	maximum = 29
Slowest flit = 5376
Fragmentation average = 0
	minimum = 0
	maximum = 0
Injected packet rate average = 0.009625
	minimum = 0.004 (at node 1)
	maximum = 0.018 (at node 8)
Accepted packet rate average = 0.009625
	minimum = 0 (at node 0)
	maximum = 0.154 (at node 9)
Injected flit rate average = 0.009625
	minimum = 0.004 (at node 1)
	maximum = 0.018 (at node 8)
Accepted flit rate average= 0.009625
	minimum = 0 (at node 0)
	maximum = 0.154 (at node 9)
Injected packet length average = 1
Accepted packet length average = 1
Total in-flight flits = 1 (0 measured)
latency change    = 0.0278341
throughput change = 0.025974
Warmed up ...Time used is 1500 cycles
Class 0:
Packet latency average = 16.7097
	minimum = 7
	maximum = 30
Network latency average = 16.7097
	minimum = 7
	maximum = 30
Slowest packet = 5424
Flit latency average = 16.7937
	minimum = 7
	maximum = 30
Slowest flit = 5424
Fragmentation average = 0
	minimum = 0
	maximum = 0
Injected packet rate average = 0.008
	minimum = 0.004 (at node 0)
	maximum = 0.012 (at node 7)
Accepted packet rate average = 0.007875
	minimum = 0 (at node 0)
	maximum = 0.126 (at node 9)
Injected flit rate average = 0.008
	minimum = 0.004 (at node 0)
	maximum = 0.012 (at node 7)
Accepted flit rate average= 0.007875
	minimum = 0 (at node 0)
	maximum = 0.126 (at node 9)
Injected packet length average = 1
Accepted packet length average = 1
Total in-flight flits = 2 (2 measured)
latency change    = 0.0531264
throughput change = 0.222222
Class 0:
Packet latency average = 16.4656
	minimum = 7
	maximum = 30
Network latency average = 16.4656
	minimum = 7
	maximum = 30
Slowest packet = 5424
Flit latency average = 16.5076
	minimum = 7
	maximum = 30
Slowest flit = 5424
Fragmentation average = 0
	minimum = 0
	maximum = 0
Injected packet rate average = 0.0085
	minimum = 0.004 (at node 11)
	maximum = 0.014 (at node 12)
Accepted packet rate average = 0.00825
	minimum = 0 (at node 0)
	maximum = 0.132 (at node 9)
Injected flit rate average = 0.0085
	minimum = 0.004 (at node 11)
	maximum = 0.014 (at node 12)
Accepted flit rate average= 0.00825
	minimum = 0 (at node 0)
	maximum = 0.132 (at node 9)
Injected packet length average = 1
Accepted packet length average = 1
Total in-flight flits = 5 (5 measured)
latency change    = 0.0148205
throughput change = 0.0454545
Class 0:
Packet latency average = 16.2767
	minimum = 7
	maximum = 30
Network latency average = 16.2767
	minimum = 7
	maximum = 30
Slowest packet = 5424
Flit latency average = 16.3043
	minimum = 7
	maximum = 30
Slowest flit = 5424
Fragmentation average = 0
	minimum = 0
	maximum = 0
Injected packet rate average = 0.00870833
	minimum = 0.00333333 (at node 0)
	maximum = 0.0133333 (at node 13)
Accepted packet rate average = 0.008625
	minimum = 0 (at node 0)
	maximum = 0.138 (at node 9)
Injected flit rate average = 0.00870833
	minimum = 0.00333333 (at node 0)
	maximum = 0.0133333 (at node 13)
Accepted flit rate average= 0.008625
	minimum = 0 (at node 0)
	maximum = 0.138 (at node 9)
Injected packet length average = 1
Accepted packet length average = 1
Total in-flight flits = 3 (3 measured)
latency change    = 0.0116086
throughput change = 0.0434783
Class 0:
Packet latency average = 16.7183
	minimum = 7
	maximum = 30
Network latency average = 16.7183
	minimum = 7
	maximum = 30
Slowest packet = 5424
Flit latency average = 16.7368
	minimum = 7
	maximum = 30
Slowest flit = 5424
Fragmentation average = 0
	minimum = 0
	maximum = 0
Injected packet rate average = 0.009
	minimum = 0.005 (at node 0)
	maximum = 0.0135 (at node 6)
Accepted packet rate average = 0.00890625
	minimum = 0 (at node 0)
	maximum = 0.1425 (at node 9)
Injected flit rate average = 0.009
	minimum = 0.005 (at node 0)
	maximum = 0.0135 (at node 6)
Accepted flit rate average= 0.00890625
	minimum = 0 (at node 0)
	maximum = 0.1425 (at node 9)
Injected packet length average = 1
Accepted packet length average = 1
Total in-flight flits = 4 (4 measured)
latency change    = 0.0264148
throughput change = 0.0315789
Draining all recorded packets ...
Draining remaining packets ...
Time taken is 3546 cycles
Class 0:
Packet latency average = 16.3333
	minimum = 7
	maximum = 27
Network latency average = 16.3333
	minimum = 7
	maximum = 27
Slowest packet = 5722
Flit latency average = 16.3333
	minimum = 7
	maximum = 27
Slowest flit = 5722
Fragmentation average = 0
	minimum = 0
	maximum = 0
Injected packet rate average = 0.0085
	minimum = 0.002 (at node 12)
	maximum = 0.016 (at node 0)
Accepted packet rate average = 0.00825
	minimum = 0 (at node 0)
	maximum = 0.132 (at node 9)
Injected flit rate average = 0.0085
	minimum = 0.002 (at node 12)
	maximum = 0.016 (at node 0)
Accepted flit rate average= 0.00825
	minimum = 0 (at node 0)
	maximum = 0.132 (at node 9)
Injected packet length average = 1
Accepted packet length average = 1
Total in-flight flits = 2 (0 measured)
latency change    = 1
throughput change = 1
Class 0:
Packet latency average = 17.2583
	minimum = 7
	maximum = 28
Network latency average = 17.2583
	minimum = 7
	maximum = 28
Slowest packet = 5817
Flit latency average = 17.2583
	minimum = 7
	maximum = 28
Slowest flit = 5817
Fragmentation average = 0
	minimum = 0
	maximum = 0
Injected packet rate average = 0.009875
	minimum = 0.005 (at node 11)
	maximum = 0.014 (at node 4)
Accepted packet rate average = 0.0094375
	minimum = 0 (at node 0)
	maximum = 0.151 (at node 9)
Injected flit rate average = 0.009875
	minimum = 0.005 (at node 11)
	maximum = 0.014 (at node 4)
Accepted flit rate average= 0.0094375
	minimum = 0 (at node 0)
	maximum = 0.151 (at node 9)
Injected packet length average = 1
Accepted packet length average = 1
Total in-flight flits = 7 (0 measured)
latency change    = 0.0535943
throughput change = 0.125828
Class 0:
Packet latency average = 17.6986
	minimum = 7
	maximum = 28
Network latency average = 17.6986
	minimum = 7
	maximum = 28
Slowest packet = 5905
Flit latency average = 17.6986
	minimum = 7
	maximum = 28
Slowest flit = 5905
Fragmentation average = 0
	minimum = 0
	maximum = 0
Injected packet rate average = 0.00875
	minimum = 0.002 (at node 9)
	maximum = 0.02 (at node 12)
Accepted packet rate average = 0.009125
	minimum = 0 (at node 0)
	maximum = 0.146 (at node 9)
Injected flit rate average = 0.00875
	minimum = 0.002 (at node 9)
	maximum = 0.02 (at node 12)
Accepted flit rate average= 0.009125
	minimum = 0 (at node 0)
	maximum = 0.146 (at node 9)
Injected packet length average = 1
Accepted packet length average = 1
Total in-flight flits = 4 (0 measured)
latency change    = 0.0248806
throughput change = 0.0342466
Warmed up ...Time used is 1500 cycles
Class 0:
Packet latency average = 17.3373
	minimum = 7
	maximum = 27
Network latency average = 17.3373
	minimum = 7
	maximum = 27
Slowest packet = 5922
Flit latency average = 17.4483
	minimum = 7
	maximum = 27
Slowest flit = 5922
Fragmentation average = 0
	minimum = 0
	maximum = 0
Injected packet rate average = 0.01075
	minimum = 0.004 (at node 7)
	maximum = 0.018 (at node 0)
Accepted packet rate average = 0.010875
	minimum = 0 (at node 0)
	maximum = 0.174 (at node 9)
Injected flit rate average = 0.01075
	minimum = 0.004 (at node 7)
	maximum = 0.018 (at node 0)
Accepted flit rate average= 0.010875
	minimum = 0 (at node 0)
	maximum = 0.174 (at node 9)
Injected packet length average = 1
Accepted packet length average = 1
Total in-flight flits = 3 (3 measured)
latency change    = 0.0208383
throughput change = 0.16092
Class 0:
Packet latency average = 16.908
	minimum = 7
	maximum = 27
Network latency average = 16.908
	minimum = 7
	maximum = 27
Slowest packet = 5922
Flit latency average = 16.9719
	minimum = 7
	maximum = 27
Slowest flit = 5922
Fragmentation average = 0
	minimum = 0
	maximum = 0
Injected packet rate average = 0.0110625
	minimum = 0.006 (at node 7)
	maximum = 0.016 (at node 2)
Accepted packet rate average = 0.011125
	minimum = 0 (at node 0)
	maximum = 0.178 (at node 9)
Injected flit rate average = 0.0110625
	minimum = 0.006 (at node 7)
	maximum = 0.016 (at node 2)
Accepted flit rate average= 0.011125
	minimum = 0 (at node 0)
	maximum = 0.178 (at node 9)
Injected packet length average = 1
Accepted packet length average = 1
Total in-flight flits = 3 (3 measured)
latency change    = 0.0253905
throughput change = 0.0224719
Class 0:
Packet latency average = 16.8863
	minimum = 7
	maximum = 31
Network latency average = 16.8863
	minimum = 7
	maximum = 31
Slowest packet = 6129
Flit latency average = 16.9305
	minimum = 7
	maximum = 31
Slowest flit = 6129
Fragmentation average = 0
	minimum = 0
	maximum = 0
Injected packet rate average = 0.0106667
	minimum = 0.00666667 (at node 1)
	maximum = 0.014 (at node 11)
Accepted packet rate average = 0.0107917
	minimum = 0 (at node 0)
	maximum = 0.172667 (at node 9)
Injected flit rate average = 0.0106667
	minimum = 0.00666667 (at node 1)
	maximum = 0.014 (at node 11)
Accepted flit rate average= 0.0107917
	minimum = 0 (at node 0)
	maximum = 0.172667 (at node 9)
Injected packet length average = 1
Accepted packet length average = 1
Total in-flight flits = 1 (1 measured)
latency change    = 0.0012893
throughput change = 0.030888
Class 0:
Packet latency average = 17.1754
	minimum = 7
	maximum = 31
Network latency average = 17.1754
	minimum = 7
	maximum = 31
Slowest packet = 6129
Flit latency average = 17.2067
	minimum = 7
	maximum = 31
Slowest flit = 6129
Fragmentation average = 0
	minimum = 0
	maximum = 0
Injected packet rate average = 0.0102813
	minimum = 0.0085 (at node 1)
	maximum = 0.0135 (at node 6)
Accepted packet rate average = 0.0102813
	minimum = 0 (at node 0)
	maximum = 0.1645 (at node 9)
Injected flit rate average = 0.0102813
	minimum = 0.0085 (at node 1)
	maximum = 0.0135 (at node 6)
Accepted flit rate average= 0.0102813
	minimum = 0 (at node 0)
	maximum = 0.1645 (at node 9)
Injected packet length average = 1
Accepted packet length average = 1
Total in-flight flits = 4 (4 measured)
latency change    = 0.0168328
throughput change = 0.0496454
Draining all recorded packets ...
Draining remaining packets ...
Time taken is 3542 cycles
Class 0:
Packet latency average = 17.3117
	minimum = 7
	maximum = 28
Network latency average = 17.3117
	minimum = 7
	maximum = 28
Slowest packet = 6304
Flit latency average = 17.3117
	minimum = 7
	maximum = 28
Slowest flit = 6304
Fragmentation average = 0
	minimum = 0
	maximum = 0
Injected packet rate average = 0.010125
	minimum = 0.002 (at node 5)
	maximum = 0.016 (at node 4)
Accepted packet rate average = 0.009625
	minimum = 0 (at node 0)
	maximum = 0.154 (at node 9)
Injected flit rate average = 0.010125
	minimum = 0.002 (at node 5)
	maximum = 0.016 (at node 4)
Accepted flit rate average= 0.009625
	minimum = 0 (at node 0)
	maximum = 0.154 (at node 9)
Injected packet length average = 1
Accepted packet length average = 1
Total in-flight flits = 4 (0 measured)
latency change    = 1
throughput change = 1
Class 0:
Packet latency average = 17.5488
	minimum = 7
	maximum = 28
Network latency average = 17.5488
	minimum = 7
	maximum = 28
Slowest packet = 6304
Flit latency average = 17.5488
	minimum = 7
	maximum = 28
Slowest flit = 6304
Fragmentation average = 0
	minimum = 0
	maximum = 0
Injected packet rate average = 0.0105625
	minimum = 0.007 (at node 8)
	maximum = 0.02 (at node 2)
Accepted packet rate average = 0.01025
	minimum = 0 (at node 0)
	maximum = 0.164 (at node 9)
Injected flit rate average = 0.0105625
	minimum = 0.007 (at node 8)
	maximum = 0.02 (at node 2)
Accepted flit rate average= 0.01025
	minimum = 0 (at node 0)
	maximum = 0.164 (at node 9)
Injected packet length average = 1
Accepted packet length average = 1
Total in-flight flits = 5 (0 measured)
latency change    = 0.0135105
throughput change = 0.0609756
Class 0:
Packet latency average = 17.381
	minimum = 7
	maximum = 28
Network latency average = 17.381
	minimum = 7
	maximum = 28
Slowest packet = 6448
Flit latency average = 17.381
	minimum = 7
	maximum = 28
Slowest flit = 6448
Fragmentation average = 0
	minimum = 0
	maximum = 0
Injected packet rate average = 0.01
	minimum = 0 (at node 5)
	maximum = 0.02 (at node 10)
Accepted packet rate average = 0.0105
	minimum = 0 (at node 0)
	maximum = 0.168 (at node 9)
Injected flit rate average = 0.01
	minimum = 0 (at node 5)
	maximum = 0.02 (at node 10)
Accepted flit rate average= 0.0105
	minimum = 0 (at node 0)
	maximum = 0.168 (at node 9)
Injected packet length average = 1
Accepted packet length average = 1
Total in-flight flits = 1 (0 measured)
latency change    = 0.00965586
throughput change = 0.0238095
Warmed up ...Time used is 1500 cycles
Class 0:
Packet latency average = 16.8471
	minimum = 7
	maximum = 27
Network latency average = 16.8471
	minimum = 7
	maximum = 27
Slowest packet = 6546
Flit latency average = 16.8488
	minimum = 7
	maximum = 27
Slowest flit = 6546
Fragmentation average = 0
	minimum = 0
	maximum = 0
Injected packet rate average = 0.011
	minimum = 0.002 (at node 6)
	maximum = 0.02 (at node 2)
Accepted packet rate average = 0.01075
	minimum = 0 (at node 0)
	maximum = 0.172 (at node 9)
Injected flit rate average = 0.011
	minimum = 0.002 (at node 6)
	maximum = 0.02 (at node 2)
Accepted flit rate average= 0.01075
	minimum = 0 (at node 0)
	maximum = 0.172 (at node 9)
Injected packet length average = 1
Accepted packet length average = 1
Total in-flight flits = 3 (3 measured)
latency change    = 0.0316906
throughput change = 0.0232558
Class 0:
Packet latency average = 16.9653
	minimum = 7
	maximum = 28
Network latency average = 16.9653
	minimum = 7
	maximum = 28
Slowest packet = 6627
Flit latency average = 16.9655
	minimum = 7
	maximum = 28
Slowest flit = 6627
Fragmentation average = 0
	minimum = 0
	maximum = 0
Injected packet rate average = 0.0109375
	minimum = 0.005 (at node 6)
	maximum = 0.016 (at node 4)
Accepted packet rate average = 0.010875
	minimum = 0 (at node 0)
	maximum = 0.174 (at node 9)
Injected flit rate average = 0.0109375
	minimum = 0.005 (at node 6)
	maximum = 0.016 (at node 4)
Accepted flit rate average= 0.010875
	minimum = 0 (at node 0)
	maximum = 0.174 (at node 9)
Injected packet length average = 1
Accepted packet length average = 1
Total in-flight flits = 2 (2 measured)
latency change    = 0.00697064
throughput change = 0.0114943
Class 0:
Packet latency average = 17.0453
	minimum = 7
	maximum = 28
Network latency average = 17.0453
	minimum = 7
	maximum = 28
Slowest packet = 6627
Flit latency average = 17.0451
	minimum = 7
	maximum = 28
Slowest flit = 6627
Fragmentation average = 0
	minimum = 0
	maximum = 0
Injected packet rate average = 0.01025
	minimum = 0.00466667 (at node 6)
	maximum = 0.0133333 (at node 2)
Accepted packet rate average = 0.0101667
	minimum = 0 (at node 0)
	maximum = 0.162667 (at node 9)
Injected flit rate average = 0.01025
	minimum = 0.00466667 (at node 6)
	maximum = 0.0133333 (at node 2)
Accepted flit rate average= 0.0101667
	minimum = 0 (at node 0)
	maximum = 0.162667 (at node 9)
Injected packet length average = 1
Accepted packet length average = 1
Total in-flight flits = 3 (3 measured)
latency change    = 0.00469043
throughput change = 0.0696721
Class 0:
Packet latency average = 17.1765
	minimum = 7
	maximum = 29
Network latency average = 17.1765
	minimum = 7
	maximum = 29
Slowest packet = 6769
Flit latency average = 17.1759
	minimum = 7
	maximum = 29
Slowest flit = 6769
Fragmentation average = 0
	minimum = 0
	maximum = 0
Injected packet rate average = 0.0102813
	minimum = 0.0065 (at node 0)
	maximum = 0.014 (at node 4)
Accepted packet rate average = 0.010125
	minimum = 0 (at node 0)
	maximum = 0.162 (at node 9)
Injected flit rate average = 0.0102813
	minimum = 0.0065 (at node 0)
	maximum = 0.014 (at node 4)
Accepted flit rate average= 0.010125
	minimum = 0 (at node 0)
	maximum = 0.162 (at node 9)
Injected packet length average = 1
Accepted packet length average = 1
Total in-flight flits = 6 (6 measured)
latency change    = 0.00763854
throughput change = 0.00411523
Class 0:
Packet latency average = 17.2506
	minimum = 7
	maximum = 30
Network latency average = 17.2506
	minimum = 7
	maximum = 30
Slowest packet = 6863
Flit latency average = 17.25
	minimum = 7
	maximum = 30
Slowest flit = 6863
Fragmentation average = 0
	minimum = 0
	maximum = 0
Injected packet rate average = 0.01005
	minimum = 0.0068 (at node 6)
	maximum = 0.0128 (at node 4)
Accepted packet rate average = 0.01
	minimum = 0 (at node 0)
	maximum = 0.16 (at node 9)
Injected flit rate average = 0.01005
	minimum = 0.0068 (at node 6)
	maximum = 0.0128 (at node 4)
Accepted flit rate average= 0.01
	minimum = 0 (at node 0)
	maximum = 0.16 (at node 9)
Injected packet length average = 1
Accepted packet length average = 1
Total in-flight flits = 3 (3 measured)
latency change    = 0.00429874
throughput change = 0.0125
Class 0:
Packet latency average = 17.2131
	minimum = 7
	maximum = 30
Network latency average = 17.2131
	minimum = 7
	maximum = 30
Slowest packet = 6863
Flit latency average = 17.2127
	minimum = 7
	maximum = 30
Slowest flit = 6863
Fragmentation average = 0
	minimum = 0
	maximum = 0
Injected packet rate average = 0.0102708
	minimum = 0.00833333 (at node 6)
	maximum = 0.0136667 (at node 4)
Accepted packet rate average = 0.0101875
	minimum = 0 (at node 0)
	maximum = 0.163 (at node 9)
Injected flit rate average = 0.0102708
	minimum = 0.00833333 (at node 6)
	maximum = 0.0136667 (at node 4)
Accepted flit rate average= 0.0101875
	minimum = 0 (at node 0)
	maximum = 0.163 (at node 9)
Injected packet length average = 1
Accepted packet length average = 1
Total in-flight flits = 5 (5 measured)
latency change    = 0.00217926
throughput change = 0.0184049
Draining all recorded packets ...
Draining remaining packets ...
Time taken is 4525 cycles
Class 0:
Packet latency average = 17.25
	minimum = 7
	maximum = 30
Network latency average = 17.25
	minimum = 7
	maximum = 30
Slowest packet = 7019
Flit latency average = 17.25
	minimum = 7
	maximum = 30
Slowest flit = 7019
Fragmentation average = 0
	minimum = 0
	maximum = 0
Injected packet rate average = 0.009625
	minimum = 0.002 (at node 5)
	maximum = 0.02 (at node 8)
Accepted packet rate average = 0.0095
	minimum = 0 (at node 0)
	maximum = 0.152 (at node 9)
Injected flit rate average = 0.009625
	minimum = 0.002 (at node 5)
	maximum = 0.02 (at node 8)
Accepted flit rate average= 0.0095
	minimum = 0 (at node 0)
	maximum = 0.152 (at node 9)
Injected packet length average = 1
Accepted packet length average = 1
Total in-flight flits = 1 (0 measured)
latency change    = 1
throughput change = 1
Class 0:
Packet latency average = 16.7898
	minimum = 7
	maximum = 30
Network latency average = 16.7898
	minimum = 7
	maximum = 30
Slowest packet = 7019
Flit latency average = 16.7898
	minimum = 7
	maximum = 30
Slowest flit = 7019
Fragmentation average = 0
	minimum = 0
	maximum = 0
Injected packet rate average = 0.0101875
	minimum = 0.006 (at node 6)
	maximum = 0.017 (at node 8)
Accepted packet rate average = 0.0098125
	minimum = 0 (at node 0)
	maximum = 0.157 (at node 9)
Injected flit rate average = 0.0101875
	minimum = 0.006 (at node 6)
	maximum = 0.017 (at node 8)
Accepted flit rate average= 0.0098125
	minimum = 0 (at node 0)
	maximum = 0.157 (at node 9)
Injected packet length average = 1
Accepted packet length average = 1
Total in-flight flits = 6 (0 measured)
latency change    = 0.027409
throughput change = 0.0318471
Class 0:
Packet latency average = 17.0568
	minimum = 7
	maximum = 28
Network latency average = 17.0568
	minimum = 7
	maximum = 28
Slowest packet = 7152
Flit latency average = 17.0568
	minimum = 7
	maximum = 28
Slowest flit = 7152
Fragmentation average = 0
	minimum = 0
	maximum = 0
Injected packet rate average = 0.011
	minimum = 0.004 (at node 6)
	maximum = 0.02 (at node 3)
Accepted packet rate average = 0.011
	minimum = 0 (at node 0)
	maximum = 0.176 (at node 9)
Injected flit rate average = 0.011
	minimum = 0.004 (at node 6)
	maximum = 0.02 (at node 3)
Accepted flit rate average= 0.011
	minimum = 0 (at node 0)
	maximum = 0.176 (at node 9)
Injected packet length average = 1
Accepted packet length average = 1
Total in-flight flits = 6 (0 measured)
latency change    = 0.0156541
throughput change = 0.107955
Warmed up ...Time used is 1500 cycles
Class 0:
Packet latency average = 18.4757
	minimum = 7
	maximum = 36
Network latency average = 18.4757
	minimum = 7
	maximum = 36
Slowest packet = 7302
Flit latency average = 18.5596
	minimum = 7
	maximum = 36
Slowest flit = 7302
Fragmentation average = 0
	minimum = 0
	maximum = 0
Injected packet rate average = 0.013125
	minimum = 0.004 (at node 12)
	maximum = 0.022 (at node 2)
Accepted packet rate average = 0.013625
	minimum = 0 (at node 0)
	maximum = 0.218 (at node 9)
Injected flit rate average = 0.013125
	minimum = 0.004 (at node 12)
	maximum = 0.022 (at node 2)
Accepted flit rate average= 0.013625
	minimum = 0 (at node 0)
	maximum = 0.218 (at node 9)
Injected packet length average = 1
Accepted packet length average = 1
Total in-flight flits = 2 (2 measured)
latency change    = 0.0767986
throughput change = 0.192661
Class 0:
Packet latency average = 17.7901
	minimum = 7
	maximum = 36
Network latency average = 17.7901
	minimum = 7
	maximum = 36
Slowest packet = 7302
Flit latency average = 17.861
	minimum = 7
	maximum = 36
Slowest flit = 7302
Fragmentation average = 0
	minimum = 0
	maximum = 0
Injected packet rate average = 0.0114375
	minimum = 0.007 (at node 8)
	maximum = 0.017 (at node 7)
Accepted packet rate average = 0.0116875
	minimum = 0 (at node 0)
	maximum = 0.187 (at node 9)
Injected flit rate average = 0.0114375
	minimum = 0.007 (at node 8)
	maximum = 0.017 (at node 7)
Accepted flit rate average= 0.0116875
	minimum = 0 (at node 0)
	maximum = 0.187 (at node 9)
Injected packet length average = 1
Accepted packet length average = 1
Total in-flight flits = 2 (2 measured)
latency change    = 0.0385425
throughput change = 0.165775
Class 0:
Packet latency average = 17.498
	minimum = 7
	maximum = 36
Network latency average = 17.498
	minimum = 7
	maximum = 36
Slowest packet = 7302
Flit latency average = 17.5564
	minimum = 7
	maximum = 36
Slowest flit = 7302
Fragmentation average = 0
	minimum = 0
	maximum = 0
Injected packet rate average = 0.0105
	minimum = 0.00733333 (at node 13)
	maximum = 0.014 (at node 7)
Accepted packet rate average = 0.0107083
	minimum = 0 (at node 0)
	maximum = 0.171333 (at node 9)
Injected flit rate average = 0.0105
	minimum = 0.00733333 (at node 13)
	maximum = 0.014 (at node 7)
Accepted flit rate average= 0.0107083
	minimum = 0 (at node 0)
	maximum = 0.171333 (at node 9)
[...]
Total in-flight flits = 2 (0 measured)
latency change    = 0.0171454
throughput change = 0.0181818
Class 0:
Packet latency average = 16.8816
	minimum = 7
	maximum = 28
Network latency average = 16.8816
	minimum = 7
	maximum = 28
Slowest packet = 30445
Flit latency average = 16.8816
	minimum = 7
	maximum = 28
Slowest flit = 30445
Fragmentation average = 0
	minimum = 0
	maximum = 0
Injected packet rate average = 0.009375
	minimum = 0.004 (at node 2)
	maximum = 0.018 (at node 6)
Accepted packet rate average = 0.0095
	minimum = 0 (at node 0)
	maximum = 0.152 (at node 9)
Injected flit rate average = 0.009375
	minimum = 0.004 (at node 2)
	maximum = 0.018 (at node 6)
Accepted flit rate average= 0.0095
	minimum = 0 (at node 0)
	maximum = 0.152 (at node 9)
Injected packet length average = 1
Accepted packet length average = 1
Total in-flight flits = 1 (0 measured)
latency change    = 0.00914051
throughput change = 0.0855263
Warmed up ...Time used is 1500 cycles
Class 0:
Packet latency average = 18.0988
	minimum = 7
	maximum = 29
Network latency average = 18.0988
	minimum = 7
	maximum = 29
Slowest packet = 30542
Flit latency average = 18.1585
	minimum = 7
	maximum = 29
Slowest flit = 30542
Fragmentation average = 0
	minimum = 0
	maximum = 0
Injected packet rate average = 0.010625
	minimum = 0.002 (at node 8)
	maximum = 0.02 (at node 3)
Accepted packet rate average = 0.01025
	minimum = 0 (at node 0)
	maximum = 0.164 (at node 9)
Injected flit rate average = 0.010625
	minimum = 0.002 (at node 8)
	maximum = 0.02 (at node 3)
Accepted flit rate average= 0.01025
	minimum = 0 (at node 0)
	maximum = 0.164 (at node 9)
Injected packet length average = 1
Accepted packet length average = 1
Total in-flight flits = 4 (4 measured)
latency change    = 0.0672525
throughput change = 0.0731707
Class 0:
Packet latency average = 16.7468
	minimum = 7
	maximum = 29
Network latency average = 16.7468
	minimum = 7
	maximum = 29
Slowest packet = 30542
Flit latency average = 16.7862
	minimum = 7
	maximum = 29
Slowest flit = 30542
Fragmentation average = 0
	minimum = 0
	maximum = 0
Injected packet rate average = 0.01
	minimum = 0.003 (at node 15)
	maximum = 0.014 (at node 5)
Accepted packet rate average = 0.0099375
	minimum = 0 (at node 0)
	maximum = 0.159 (at node 9)
Injected flit rate average = 0.01
	minimum = 0.003 (at node 15)
	maximum = 0.014 (at node 5)
Accepted flit rate average= 0.0099375
	minimum = 0 (at node 0)
	maximum = 0.159 (at node 9)
Injected packet length average = 1
Accepted packet length average = 1
Total in-flight flits = 2 (2 measured)
latency change    = 0.0807275
throughput change = 0.0314465
Class 0:
Packet latency average = 16.8874
	minimum = 7
	maximum = 29
Network latency average = 16.8874
	minimum = 7
	maximum = 29
Slowest packet = 30542
Flit latency average = 16.9148
	minimum = 7
	maximum = 29
Slowest flit = 30542
Fragmentation average = 0
	minimum = 0
	maximum = 0
Injected packet rate average = 0.00941667
	minimum = 0.00333333 (at node 15)
	maximum = 0.0146667 (at node 10)
Accepted packet rate average = 0.00929167
	minimum = 0 (at node 0)
	maximum = 0.148667 (at node 9)
Injected flit rate average = 0.00941667
	minimum = 0.00333333 (at node 15)
	maximum = 0.0146667 (at node 10)
Accepted flit rate average= 0.00929167
	minimum = 0 (at node 0)
	maximum = 0.148667 (at node 9)
Injected packet length average = 1
Accepted packet length average = 1
Total in-flight flits = 4 (4 measured)
latency change    = 0.00832289
throughput change = 0.0695067
Class 0:
Packet latency average = 17.1199
	minimum = 7
	maximum = 29
Network latency average = 17.1199
	minimum = 7
	maximum = 29
Slowest packet = 30542
Flit latency average = 17.1399
	minimum = 7
	maximum = 29
Slowest flit = 30542
Fragmentation average = 0
	minimum = 0
	maximum = 0
Injected packet rate average = 0.0091875
	minimum = 0.003 (at node 15)
	maximum = 0.012 (at node 10)
Accepted packet rate average = 0.00915625
	minimum = 0 (at node 0)
	maximum = 0.1465 (at node 9)
Injected flit rate average = 0.0091875
	minimum = 0.003 (at node 15)
	maximum = 0.012 (at node 10)
Accepted flit rate average= 0.00915625
	minimum = 0 (at node 0)
	maximum = 0.1465 (at node 9)
Injected packet length average = 1
Accepted packet length average = 1
Total in-flight flits = 2 (2 measured)
latency change    = 0.0135793
throughput change = 0.0147895
Class 0:
Packet latency average = 16.9972
	minimum = 7
	maximum = 29
Network latency average = 16.9972
	minimum = 7
	maximum = 29
Slowest packet = 30542
Flit latency average = 17.0138
	minimum = 7
	maximum = 29
Slowest flit = 30542
Fragmentation average = 0
	minimum = 0
	maximum = 0
Injected packet rate average = 0.009075
	minimum = 0.0044 (at node 15)
	maximum = 0.0128 (at node 10)
Accepted packet rate average = 0.00905
	minimum = 0 (at node 0)
	maximum = 0.1448 (at node 9)
Injected flit rate average = 0.009075
	minimum = 0.0044 (at node 15)
	maximum = 0.0128 (at node 10)
Accepted flit rate average= 0.00905
	minimum = 0 (at node 0)
	maximum = 0.1448 (at node 9)
Injected packet length average = 1
Accepted packet length average = 1
Total in-flight flits = 2 (2 measured)
latency change    = 0.00721489
throughput change = 0.0117403
Class 0:
Packet latency average = 17.1316
	minimum = 7
	maximum = 29
Network latency average = 17.1316
	minimum = 7
	maximum = 29
Slowest packet = 30542
Flit latency average = 17.1452
	minimum = 7
	maximum = 29
Slowest flit = 30542
Fragmentation average = 0
	minimum = 0
	maximum = 0
Injected packet rate average = 0.00914583
	minimum = 0.00533333 (at node 8)
	maximum = 0.0136667 (at node 14)
Accepted packet rate average = 0.00904167
	minimum = 0 (at node 0)
	maximum = 0.144667 (at node 9)
Injected flit rate average = 0.00914583
	minimum = 0.00533333 (at node 8)
	maximum = 0.0136667 (at node 14)
Accepted flit rate average= 0.00904167
	minimum = 0 (at node 0)
	maximum = 0.144667 (at node 9)
Injected packet length average = 1
Accepted packet length average = 1
Total in-flight flits = 6 (6 measured)
latency change    = 0.00784571
throughput change = 0.000921659
Draining all recorded packets ...
Draining remaining packets ...
Time taken is 4542 cycles
Class 0:
Packet latency average = 16.8765
	minimum = 7
	maximum = 27
Network latency average = 16.8765
	minimum = 7
	maximum = 27
Slowest packet = 30953
Flit latency average = 16.8765
	minimum = 7
	maximum = 27
Slowest flit = 30953
Fragmentation average = 0
	minimum = 0
	maximum = 0
Injected packet rate average = 0.010375
	minimum = 0.002 (at node 7)
	maximum = 0.02 (at node 2)
Accepted packet rate average = 0.010125
	minimum = 0 (at node 0)
	maximum = 0.162 (at node 9)
Injected flit rate average = 0.010375
	minimum = 0.002 (at node 7)
	maximum = 0.02 (at node 2)
Accepted flit rate average= 0.010125
	minimum = 0 (at node 0)
	maximum = 0.162 (at node 9)
Injected packet length average = 1
Accepted packet length average = 1
Total in-flight flits = 2 (0 measured)
latency change    = 1
throughput change = 1
Class 0:
Packet latency average = 16.7027
	minimum = 7
	maximum = 27
Network latency average = 16.7027
	minimum = 7
	maximum = 27
Slowest packet = 30953
Flit latency average = 16.7027
	minimum = 7
	maximum = 27
Slowest flit = 30953
Fragmentation average = 0
	minimum = 0
	maximum = 0
Injected packet rate average = 0.0094375
	minimum = 0.005 (at node 7)
	maximum = 0.017 (at node 2)
Accepted packet rate average = 0.00925
	minimum = 0 (at node 0)
	maximum = 0.148 (at node 9)
Injected flit rate average = 0.0094375
	minimum = 0.005 (at node 7)
	maximum = 0.017 (at node 2)
Accepted flit rate average= 0.00925
	minimum = 0 (at node 0)
	maximum = 0.148 (at node 9)
Injected packet length average = 1
Accepted packet length average = 1
Total in-flight flits = 3 (0 measured)
latency change    = 0.0104079
throughput change = 0.0945946
Class 0:
Packet latency average = 15.825
	minimum = 7
	maximum = 27
Network latency average = 15.825
	minimum = 7
	maximum = 27
Slowest packet = 31118
Flit latency average = 15.825
	minimum = 7
	maximum = 27
Slowest flit = 31118
Fragmentation average = 0
	minimum = 0
	maximum = 0
Injected packet rate average = 0.01025
	minimum = 0.006 (at node 0)
	maximum = 0.022 (at node 13)
Accepted packet rate average = 0.01
	minimum = 0 (at node 0)
	maximum = 0.16 (at node 9)
Injected flit rate average = 0.01025
	minimum = 0.006 (at node 0)
	maximum = 0.022 (at node 13)
Accepted flit rate average= 0.01
	minimum = 0 (at node 0)
	maximum = 0.16 (at node 9)
Injected packet length average = 1
Accepted packet length average = 1
Total in-flight flits = 5 (0 measured)
latency change    = 0.055463
throughput change = 0.075
Warmed up ...Time used is 1500 cycles
Class 0:
Packet latency average = 16.4
	minimum = 7
	maximum = 27
Network latency average = 16.4
	minimum = 7
	maximum = 27
Slowest packet = 31192
Flit latency average = 16.7067
	minimum = 7
	maximum = 27
Slowest flit = 31169
Fragmentation average = 0
	minimum = 0
	maximum = 0
Injected packet rate average = 0.009
	minimum = 0.004 (at node 0)
	maximum = 0.016 (at node 9)
Accepted packet rate average = 0.009375
	minimum = 0 (at node 0)
	maximum = 0.15 (at node 9)
Injected flit rate average = 0.009
	minimum = 0.004 (at node 0)
	maximum = 0.016 (at node 9)
Accepted flit rate average= 0.009375
	minimum = 0 (at node 0)
	maximum = 0.15 (at node 9)
Injected packet length average = 1
Accepted packet length average = 1
Total in-flight flits = 2 (2 measured)
latency change    = 0.035061
throughput change = 0.0666667
Class 0:
Packet latency average = 16.6051
	minimum = 7
	maximum = 27
Network latency average = 16.6051
	minimum = 7
	maximum = 27
Slowest packet = 31192
Flit latency average = 16.7407
	minimum = 7
	maximum = 27
Slowest flit = 31169
Fragmentation average = 0
	minimum = 0
	maximum = 0
Injected packet rate average = 0.01
	minimum = 0.006 (at node 15)
	maximum = 0.015 (at node 10)
Accepted packet rate average = 0.010125
	minimum = 0 (at node 0)
	maximum = 0.162 (at node 9)
Injected flit rate average = 0.01
	minimum = 0.006 (at node 15)
	maximum = 0.015 (at node 10)
Accepted flit rate average= 0.010125
	minimum = 0 (at node 0)
	maximum = 0.162 (at node 9)
Injected packet length average = 1
Accepted packet length average = 1
Total in-flight flits = 3 (3 measured)
latency change    = 0.0123514
throughput change = 0.0740741
Class 0:
Packet latency average = 16.4718
	minimum = 7
	maximum = 27
Network latency average = 16.4718
	minimum = 7
	maximum = 27
Slowest packet = 31192
Flit latency average = 16.5613
	minimum = 7
	maximum = 27
Slowest flit = 31169
Fragmentation average = 0
	minimum = 0
	maximum = 0
Injected packet rate average = 0.0104583
	minimum = 0.00666667 (at node 15)
	maximum = 0.016 (at node 10)
Accepted packet rate average = 0.0105417
	minimum = 0 (at node 0)
	maximum = 0.168667 (at node 9)
Injected flit rate average = 0.0104583
	minimum = 0.00666667 (at node 15)
	maximum = 0.016 (at node 10)
Accepted flit rate average= 0.0105417
	minimum = 0 (at node 0)
	maximum = 0.168667 (at node 9)
Injected packet length average = 1
Accepted packet length average = 1
Total in-flight flits = 3 (3 measured)
latency change    = 0.00809393
throughput change = 0.0395257
Class 0:
Packet latency average = 17.0399
	minimum = 7
	maximum = 28
Network latency average = 17.0399
	minimum = 7
	maximum = 28
Slowest packet = 31488
Flit latency average = 17.0997
	minimum = 7
	maximum = 28
Slowest flit = 31488
Fragmentation average = 0
	minimum = 0
	maximum = 0
Injected packet rate average = 0.0102188
	minimum = 0.007 (at node 12)
	maximum = 0.0155 (at node 10)
Accepted packet rate average = 0.0103438
	minimum = 0 (at node 0)
	maximum = 0.1655 (at node 9)
Injected flit rate average = 0.0102188
	minimum = 0.007 (at node 12)
	maximum = 0.0155 (at node 10)
Accepted flit rate average= 0.0103438
	minimum = 0 (at node 0)
	maximum = 0.1655 (at node 9)
Injected packet length average = 1
Accepted packet length average = 1
Total in-flight flits = 1 (1 measured)
latency change    = 0.0333396
throughput change = 0.0191339
Class 0:
Packet latency average = 17.267
	minimum = 7
	maximum = 28
Network latency average = 17.267
	minimum = 7
	maximum = 28
Slowest packet = 31488
Flit latency average = 17.3118
	minimum = 7
	maximum = 28
Slowest flit = 31488
Fragmentation average = 0
	minimum = 0
	maximum = 0
Injected packet rate average = 0.0104
	minimum = 0.0076 (at node 15)
	maximum = 0.0156 (at node 10)
Accepted packet rate average = 0.010425
	minimum = 0 (at node 0)
	maximum = 0.1668 (at node 9)
Injected flit rate average = 0.0104
	minimum = 0.0076 (at node 15)
	maximum = 0.0156 (at node 10)
Accepted flit rate average= 0.010425
	minimum = 0 (at node 0)
	maximum = 0.1668 (at node 9)
Injected packet length average = 1
Accepted packet length average = 1
Total in-flight flits = 4 (4 measured)
latency change    = 0.013153
throughput change = 0.00779376
Draining all recorded packets ...
Draining remaining packets ...
Time taken is 4024 cycles
Class 0:
Packet latency average = 17.2941
	minimum = 7
	maximum = 29
Network latency average = 17.2941
	minimum = 7
	maximum = 29
Slowest packet = 31622
Flit latency average = 17.2941
	minimum = 7
	maximum = 29
Slowest flit = 31622
Fragmentation average = 0
	minimum = 0
	maximum = 0
Injected packet rate average = 0.00875
	minimum = 0.002 (at node 12)
	maximum = 0.018 (at node 3)
Accepted packet rate average = 0.0085
	minimum = 0 (at node 0)
	maximum = 0.136 (at node 9)
Injected flit rate average = 0.00875
	minimum = 0.002 (at node 12)
	maximum = 0.018 (at node 3)
Accepted flit rate average= 0.0085
	minimum = 0 (at node 0)
	maximum = 0.136 (at node 9)
Injected packet length average = 1
Accepted packet length average = 1
Total in-flight flits = 2 (0 measured)
latency change    = 1
throughput change = 1
Class 0:
Packet latency average = 17.3469
	minimum = 7
	maximum = 29
Network latency average = 17.3469
	minimum = 7
	maximum = 29
Slowest packet = 31622
Flit latency average = 17.3469
	minimum = 7
	maximum = 29
Slowest flit = 31622
Fragmentation average = 0
	minimum = 0
	maximum = 0
Injected packet rate average = 0.009375
	minimum = 0.005 (at node 12)
	maximum = 0.015 (at node 7)
Accepted packet rate average = 0.0091875
	minimum = 0 (at node 0)
	maximum = 0.147 (at node 9)
Injected flit rate average = 0.009375
	minimum = 0.005 (at node 12)
	maximum = 0.015 (at node 7)
Accepted flit rate average= 0.0091875
	minimum = 0 (at node 0)
	maximum = 0.147 (at node 9)
Injected packet length average = 1
Accepted packet length average = 1
Total in-flight flits = 3 (0 measured)
latency change    = 0.00304498
throughput change = 0.0748299
Class 0:
Packet latency average = 16.3134
	minimum = 7
	maximum = 27
Network latency average = 16.3134
	minimum = 7
	maximum = 27
Slowest packet = 31740
Flit latency average = 16.3134
	minimum = 7
	maximum = 27
Slowest flit = 31740
Fragmentation average = 0
	minimum = 0
	maximum = 0
Injected packet rate average = 0.00825
	minimum = 0.002 (at node 7)
	maximum = 0.018 (at node 6)
Accepted packet rate average = 0.008375
	minimum = 0 (at node 0)
	maximum = 0.134 (at node 9)
Injected flit rate average = 0.00825
	minimum = 0.002 (at node 7)
	maximum = 0.018 (at node 6)
Accepted flit rate average= 0.008375
	minimum = 0 (at node 0)
	maximum = 0.134 (at node 9)
Injected packet length average = 1
Accepted packet length average = 1
Total in-flight flits = 2 (0 measured)
latency change    = 0.0633531
throughput change = 0.0970149
Warmed up ...Time used is 1500 cycles
Class 0:
Packet latency average = 16.8056
	minimum = 7
	maximum = 27
Network latency average = 16.8056
	minimum = 7
	maximum = 27
Slowest packet = 31823
Flit latency average = 16.6081
	minimum = 7
	maximum = 27
Slowest flit = 31823
Fragmentation average = 0
	minimum = 0
	maximum = 0
Injected packet rate average = 0.009375
	minimum = 0.002 (at node 7)
	maximum = 0.016 (at node 6)
Accepted packet rate average = 0.00925
	minimum = 0 (at node 0)
	maximum = 0.148 (at node 9)
Injected flit rate average = 0.009375
	minimum = 0.002 (at node 7)
	maximum = 0.016 (at node 6)
Accepted flit rate average= 0.00925
	minimum = 0 (at node 0)
	maximum = 0.148 (at node 9)
Injected packet length average = 1
Accepted packet length average = 1
Total in-flight flits = 3 (3 measured)
latency change    = 0.0292833
throughput change = 0.0945946
Class 0:
Packet latency average = 17.1241
	minimum = 7
	maximum = 28
Network latency average = 17.1241
	minimum = 7
	maximum = 28
Slowest packet = 31920
Flit latency average = 17.0204
	minimum = 7
	maximum = 28
Slowest flit = 31920
Fragmentation average = 0
	minimum = 0
	maximum = 0
Injected packet rate average = 0.0091875
	minimum = 0.005 (at node 14)
	maximum = 0.013 (at node 10)
Accepted packet rate average = 0.0091875
	minimum = 0 (at node 0)
	maximum = 0.147 (at node 9)
Injected flit rate average = 0.0091875
	minimum = 0.005 (at node 14)
	maximum = 0.013 (at node 10)
Accepted flit rate average= 0.0091875
	minimum = 0 (at node 0)
	maximum = 0.147 (at node 9)
Injected packet length average = 1
Accepted packet length average = 1
Total in-flight flits = 2 (2 measured)
latency change    = 0.0186043
throughput change = 0.00680272
Class 0:
Packet latency average = 17.242
	minimum = 7
	maximum = 28
Network latency average = 17.242
	minimum = 7
	maximum = 28
Slowest packet = 31920
Flit latency average = 17.1719
	minimum = 7
	maximum = 28
Slowest flit = 31920
Fragmentation average = 0
	minimum = 0
	maximum = 0
Injected packet rate average = 0.00920833
	minimum = 0.00533333 (at node 8)
	maximum = 0.012 (at node 10)
Accepted packet rate average = 0.00920833
	minimum = 0 (at node 0)
	maximum = 0.147333 (at node 9)
Injected flit rate average = 0.00920833
	minimum = 0.00533333 (at node 8)
	maximum = 0.012 (at node 10)
Accepted flit rate average= 0.00920833
	minimum = 0 (at node 0)
	maximum = 0.147333 (at node 9)
Injected packet length average = 1
Accepted packet length average = 1
Total in-flight flits = 2 (2 measured)
latency change    = 0.00683628
throughput change = 0.00226244
Class 0:
Packet latency average = 17.1271
	minimum = 7
	maximum = 28
Network latency average = 17.1271
	minimum = 7
	maximum = 28
Slowest packet = 31920
Flit latency average = 17.0751
	minimum = 7
	maximum = 28
Slowest flit = 31920
Fragmentation average = 0
	minimum = 0
	maximum = 0
Injected packet rate average = 0.00915625
	minimum = 0.007 (at node 11)
	maximum = 0.0125 (at node 10)
Accepted packet rate average = 0.00915625
	minimum = 0 (at node 0)
	maximum = 0.1465 (at node 9)
Injected flit rate average = 0.00915625
	minimum = 0.007 (at node 11)
	maximum = 0.0125 (at node 10)
Accepted flit rate average= 0.00915625
	minimum = 0 (at node 0)
	maximum = 0.1465 (at node 9)
Injected packet length average = 1
Accepted packet length average = 1
Total in-flight flits = 2 (2 measured)
latency change    = 0.00670639
throughput change = 0.00568828
Draining all recorded packets ...
Draining remaining packets ...
Time taken is 3538 cycles
====== Overall Traffic Statistics ======
====== Traffic class 0 ======
Packet latency average = 17.1416 (50 samples)
	minimum = 7 (50 samples)
	maximum = 30.08 (50 samples)
Network latency average = 17.1416 (50 samples)
	minimum = 7 (50 samples)
	maximum = 30.08 (50 samples)
Flit latency average = 17.1536 (50 samples)
	minimum = 7 (50 samples)
	maximum = 30.08 (50 samples)
Fragmentation average = 0 (50 samples)
	minimum = 0 (50 samples)
	maximum = 0 (50 samples)
Injected packet rate average = 0.00995258 (50 samples)
	minimum = 0.00658467 (50 samples)
	maximum = 0.013658 (50 samples)
Accepted packet rate average = 0.00995504 (50 samples)
	minimum = 0 (50 samples)
	maximum = 0.159281 (50 samples)
Injected flit rate average = 0.00995258 (50 samples)
	minimum = 0.00658467 (50 samples)
	maximum = 0.013658 (50 samples)
Accepted flit rate average = 0.00995504 (50 samples)
	minimum = 0 (50 samples)
	maximum = 0.159281 (50 samples)
Injected packet size average = 1 (50 samples)
Accepted packet size average = 1 (50 samples)
Hops average = 2.99454 (50 samples)
Total run time 4.29686
