BEGIN Configuration File: /tmp/tmp193briif.cfg
topology = mesh;
k = 4;
n = 2;
routing_function = gnn_port_score_route_4x4;
num_vcs = 4;
vc_buf_size = 4;
wait_for_tail_credit = 1;
vc_allocator = islip;
sw_allocator = islip;
alloc_iters = 1;
credit_delay = 2;
routing_delay = 1;
vc_alloc_delay = 1;
sw_alloc_delay = 1;
input_speedup = 2;
output_speedup = 1;
internal_speedup = 1.0;
traffic = hotspot;
packet_size = 1;
sim_type = latency;
injection_rate = 0.01;
warmup_periods = 3;
sample_period = 500;
sim_count = 50;
seed = 0;
link_failures = 2;
fail_seed = 101;

END Configuration File: /tmp/tmp193briif.cfg
failure at node 14, channel 0 (1/2)
failure at node 12, channel 0 (2/2)
Class 0:
Packet latency average = 20.075
	minimum = 7
	maximum = 39
Network latency average = 20.075
	minimum = 7
	maximum = 39
Slowest packet = 62
Flit latency average = 20.075
	minimum = 7
	maximum = 39
Slowest flit = 62
Fragmentation average = 0
	minimum = 0
	maximum = 0
Injected packet rate average = 0.010375
	minimum = 0.004 (at node 5)
	maximum = 0.016 (at node 9)
Accepted packet rate average = 0.01
	minimum = 0 (at node 0)
	maximum = 0.16 (at node 4)
Injected flit rate average = 0.010375
	minimum = 0.004 (at node 5)
	maximum = 0.016 (at node 9)
Accepted flit rate average= 0.01
	minimum = 0 (at node 0)
	maximum = 0.16 (at node 4)
Injected packet length average = 1
Accepted packet length average = 1
Total in-flight flits = 3 (0 measured)
latency change    = 1
throughput change = 1
Class 0:
Packet latency average = 19.7647
	minimum = 7
	maximum = 39
Network latency average = 19.7647
	minimum = 7
	maximum = 39
Slowest packet = 62
Flit latency average = 19.7647
	minimum = 7
	maximum = 39
Slowest flit = 62
Fragmentation average = 0
	minimum = 0
	maximum = 0
Injected packet rate average = 0.00975
	minimum = 0.004 (at node 11)
	maximum = 0.014 (at node 13)
Accepted packet rate average = 0.0095625
	minimum = 0 (at node 0)
	maximum = 0.153 (at node 4)
Injected flit rate average = 0.00975
	minimum = 0.004 (at node 11)
	maximum = 0.014 (at node 13)
Accepted flit rate average= 0.0095625
	minimum = 0 (at node 0)
	maximum = 0.153 (at node 4)
Injected packet length average = 1
Accepted packet length average = 1
Total in-flight flits = 3 (0 measured)
latency change    = 0.0156994
throughput change = 0.0457516
Class 0:
Packet latency average = 19.5211
	minimum = 7
	maximum = 34
Network latency average = 19.5211
	minimum = 7
	maximum = 34
Slowest packet = 211
Flit latency average = 19.5211
	minimum = 7
	maximum = 34
Slowest flit = 211
Fragmentation average = 0
	minimum = 0
	maximum = 0
Injected packet rate average = 0.00925
	minimum = 0.002 (at node 11)
	maximum = 0.016 (at node 10)
Accepted packet rate average = 0.008875
	minimum = 0 (at node 0)
	maximum = 0.142 (at node 4)
Injected flit rate average = 0.00925
	minimum = 0.002 (at node 11)
	maximum = 0.016 (at node 10)
Accepted flit rate average= 0.008875
	minimum = 0 (at node 0)
	maximum = 0.142 (at node 4)
Injected packet length average = 1
Accepted packet length average = 1
Total in-flight flits = 6 (0 measured)
latency change    = 0.0124777
throughput change = 0.0774648
Warmed up ...Time used is 1500 cycles
Class 0:
Packet latency average = 19.5067
	minimum = 7
	maximum = 32
Network latency average = 19.5067
	minimum = 7
	maximum = 32
Slowest packet = 230
Flit latency average = 19.8148
	minimum = 7
	maximum = 32
Slowest flit = 230
Fragmentation average = 0
	minimum = 0
	maximum = 0
Injected packet rate average = 0.00975
	minimum = 0.004 (at node 3)
	maximum = 0.018 (at node 8)
Accepted packet rate average = 0.010125
	minimum = 0 (at node 0)
	maximum = 0.162 (at node 4)
Injected flit rate average = 0.00975
	minimum = 0.004 (at node 3)
	maximum = 0.018 (at node 8)
Accepted flit rate average= 0.010125
	minimum = 0 (at node 0)
	maximum = 0.162 (at node 4)
Injected packet length average = 1
Accepted packet length average = 1
Total in-flight flits = 3 (3 measured)
latency change    = 0.00074129
throughput change = 0.123457
Class 0:
Packet latency average = 20.1046
	minimum = 7
	maximum = 36
Network latency average = 20.1046
	minimum = 7
	maximum = 36
Slowest packet = 375
Flit latency average = 20.239
	minimum = 7
	maximum = 36
Slowest flit = 375
Fragmentation average = 0
	minimum = 0
	maximum = 0
Injected packet rate average = 0.0096875
	minimum = 0.005 (at node 7)
	maximum = 0.016 (at node 13)
Accepted packet rate average = 0.0099375
	minimum = 0 (at node 0)
	maximum = 0.159 (at node 4)
Injected flit rate average = 0.0096875
	minimum = 0.005 (at node 7)
	maximum = 0.016 (at node 13)
Accepted flit rate average= 0.0099375
	minimum = 0 (at node 0)
	maximum = 0.159 (at node 4)
Injected packet length average = 1
Accepted packet length average = 1
Total in-flight flits = 2 (2 measured)
latency change    = 0.0297399
throughput change = 0.0188679
Class 0:
Packet latency average = 20.2288
	minimum = 7
	maximum = 39
Network latency average = 20.2288
	minimum = 7
	maximum = 39
Slowest packet = 391
Flit latency average = 20.314
	minimum = 7
	maximum = 39
Slowest flit = 391
Fragmentation average = 0
	minimum = 0
	maximum = 0
Injected packet rate average = 0.00991667
	minimum = 0.00733333 (at node 7)
	maximum = 0.0133333 (at node 13)
Accepted packet rate average = 0.0100833
	minimum = 0 (at node 0)
	maximum = 0.161333 (at node 4)
Injected flit rate average = 0.00991667
	minimum = 0.00733333 (at node 7)
	maximum = 0.0133333 (at node 13)
Accepted flit rate average= 0.0100833
	minimum = 0 (at node 0)
	maximum = 0.161333 (at node 4)
Injected packet length average = 1
Accepted packet length average = 1
Total in-flight flits = 2 (2 measured)
latency change    = 0.00614166
throughput change = 0.0144628
Class 0:
Packet latency average = 20.1019
	minimum = 7
	maximum = 39
Network latency average = 20.1019
	minimum = 7
	maximum = 39
Slowest packet = 391
Flit latency average = 20.1687
	minimum = 7
	maximum = 39
Slowest flit = 391
Fragmentation average = 0
	minimum = 0
	maximum = 0
Injected packet rate average = 0.00990625
	minimum = 0.0075 (at node 1)
	maximum = 0.013 (at node 8)
Accepted packet rate average = 0.01
	minimum = 0 (at node 0)
	maximum = 0.16 (at node 4)
Injected flit rate average = 0.00990625
	minimum = 0.0075 (at node 1)
	maximum = 0.013 (at node 8)
Accepted flit rate average= 0.01
	minimum = 0 (at node 0)
	maximum = 0.16 (at node 4)
Injected packet length average = 1
Accepted packet length average = 1
Total in-flight flits = 3 (3 measured)
latency change    = 0.00631297
throughput change = 0.00833333
Draining all recorded packets ...
Draining remaining packets ...
Time taken is 3550 cycles
Class 0:
Packet latency average = 20.381
	minimum = 7
	maximum = 32
Network latency average = 20.381
	minimum = 7
	maximum = 32
Slowest packet = 560
Flit latency average = 20.381
	minimum = 7
	maximum = 32
Slowest flit = 560
Fragmentation average = 0
	minimum = 0
	maximum = 0
Injected packet rate average = 0.008125
	minimum = 0.004 (at node 5)
	maximum = 0.016 (at node 11)
Accepted packet rate average = 0.007875
	minimum = 0 (at node 0)
	maximum = 0.126 (at node 4)
Injected flit rate average = 0.008125
	minimum = 0.004 (at node 5)
	maximum = 0.016 (at node 11)
Accepted flit rate average= 0.007875
	minimum = 0 (at node 0)
	maximum = 0.126 (at node 4)
Injected packet length average = 1
Accepted packet length average = 1
Total in-flight flits = 2 (0 measured)
latency change    = 1
throughput change = 1
Class 0:
Packet latency average = 20.2518
	minimum = 7
	maximum = 33
Network latency average = 20.2518
	minimum = 7
	maximum = 33
Slowest packet = 644
Flit latency average = 20.2518
	minimum = 7
	maximum = 33
Slowest flit = 644
Fragmentation average = 0
	minimum = 0
	maximum = 0
Injected packet rate average = 0.0089375
	minimum = 0.006 (at node 8)
	maximum = 0.016 (at node 10)
Accepted packet rate average = 0.0086875
	minimum = 0 (at node 0)
	maximum = 0.139 (at node 4)
Injected flit rate average = 0.0089375
	minimum = 0.006 (at node 8)
	maximum = 0.016 (at node 10)
Accepted flit rate average= 0.0086875
	minimum = 0 (at node 0)
	maximum = 0.139 (at node 4)
Injected packet length average = 1
Accepted packet length average = 1
Total in-flight flits = 4 (0 measured)
latency change    = 0.0063774
throughput change = 0.0935252
Class 0:
Packet latency average = 20.0143
	minimum = 7
	maximum = 40
Network latency average = 20.0143
	minimum = 7
	maximum = 40
Slowest packet = 718
Flit latency average = 20.0143
	minimum = 7
	maximum = 40
Slowest flit = 718
Fragmentation average = 0
	minimum = 0
	maximum = 0
Injected packet rate average = 0.00875
	minimum = 0.004 (at node 9)
	maximum = 0.016 (at node 6)
Accepted packet rate average = 0.00875
	minimum = 0 (at node 0)
	maximum = 0.14 (at node 4)
Injected flit rate average = 0.00875
	minimum = 0.004 (at node 9)
	maximum = 0.016 (at node 6)
Accepted flit rate average= 0.00875
	minimum = 0 (at node 0)
	maximum = 0.14 (at node 4)
Injected packet length average = 1
Accepted packet length average = 1
Total in-flight flits = 4 (0 measured)
latency change    = 0.0118672
throughput change = 0.00714286
Warmed up ...Time used is 1500 cycles
Class 0:
Packet latency average = 20.6962
	minimum = 7
	maximum = 41
Network latency average = 20.6962
	minimum = 7
	maximum = 41
Slowest packet = 826
Flit latency average = 20.9398
	minimum = 7
	maximum = 41
Slowest flit = 826
Fragmentation average = 0
	minimum = 0
	maximum = 0
Injected packet rate average = 0.010625
	minimum = 0.002 (at node 2)
	maximum = 0.02 (at node 15)
Accepted packet rate average = 0.010375
	minimum = 0 (at node 0)
	maximum = 0.166 (at node 4)
Injected flit rate average = 0.010625
	minimum = 0.002 (at node 2)
	maximum = 0.02 (at node 15)
Accepted flit rate average= 0.010375
	minimum = 0 (at node 0)
	maximum = 0.166 (at node 4)
Injected packet length average = 1
Accepted packet length average = 1
Total in-flight flits = 6 (6 measured)
latency change    = 0.0329489
throughput change = 0.156627
Class 0:
Packet latency average = 19.987
	minimum = 7
	maximum = 41
Network latency average = 19.987
	minimum = 7
	maximum = 41
Slowest packet = 826
Flit latency average = 20.1329
	minimum = 7
	maximum = 41
Slowest flit = 826
Fragmentation average = 0
	minimum = 0
	maximum = 0
Injected packet rate average = 0.0099375
	minimum = 0.005 (at node 6)
	maximum = 0.015 (at node 3)
Accepted packet rate average = 0.009875
	minimum = 0 (at node 0)
	maximum = 0.158 (at node 4)
Injected flit rate average = 0.0099375
	minimum = 0.005 (at node 6)
	maximum = 0.015 (at node 3)
Accepted flit rate average= 0.009875
	minimum = 0 (at node 0)
	maximum = 0.158 (at node 4)
Injected packet length average = 1
Accepted packet length average = 1
Total in-flight flits = 5 (5 measured)
latency change    = 0.0354825
throughput change = 0.0506329
Class 0:
Packet latency average = 20.3165
	minimum = 7
	maximum = 52
Network latency average = 20.3165
	minimum = 7
	maximum = 52
Slowest packet = 982
Flit latency average = 20.4066
	minimum = 7
	maximum = 52
Slowest flit = 982
Fragmentation average = 0
	minimum = 0
	maximum = 0
Injected packet rate average = 0.0102917
	minimum = 0.006 (at node 10)
	maximum = 0.0173333 (at node 3)
Accepted packet rate average = 0.0100417
	minimum = 0 (at node 0)
	maximum = 0.160667 (at node 4)
Injected flit rate average = 0.0102917
	minimum = 0.006 (at node 10)
	maximum = 0.0173333 (at node 3)
Accepted flit rate average= 0.0100417
	minimum = 0 (at node 0)
	maximum = 0.160667 (at node 4)
Injected packet length average = 1
Accepted packet length average = 1
Total in-flight flits = 10 (10 measured)
latency change    = 0.0162156
throughput change = 0.0165975
Class 0:
Packet latency average = 20.5905
	minimum = 7
	maximum = 52
Network latency average = 20.5905
	minimum = 7
	maximum = 52
Slowest packet = 982
Flit latency average = 20.6552
	minimum = 7
	maximum = 52
Slowest flit = 982
Fragmentation average = 0
	minimum = 0
	maximum = 0
Injected packet rate average = 0.0100625
	minimum = 0.0055 (at node 2)
	maximum = 0.0165 (at node 13)
Accepted packet rate average = 0.00996875
	minimum = 0 (at node 0)
	maximum = 0.1595 (at node 4)
Injected flit rate average = 0.0100625
	minimum = 0.0055 (at node 2)
	maximum = 0.0165 (at node 13)
Accepted flit rate average= 0.00996875
	minimum = 0 (at node 0)
	maximum = 0.1595 (at node 4)
Injected packet length average = 1
Accepted packet length average = 1
Total in-flight flits = 7 (7 measured)
latency change    = 0.0133081
throughput change = 0.00731452
Class 0:
Packet latency average = 20.7139
	minimum = 7
	maximum = 52
Network latency average = 20.7139
	minimum = 7
	maximum = 52
Slowest packet = 982
Flit latency average = 20.7644
	minimum = 7
	maximum = 52
Slowest flit = 982
Fragmentation average = 0
	minimum = 0
	maximum = 0
Injected packet rate average = 0.009975
	minimum = 0.0068 (at node 2)
	maximum = 0.0156 (at node 13)
Accepted packet rate average = 0.009975
	minimum = 0 (at node 0)
	maximum = 0.1596 (at node 4)
Injected flit rate average = 0.009975
	minimum = 0.0068 (at node 2)
	maximum = 0.0156 (at node 13)
Accepted flit rate average= 0.009975
	minimum = 0 (at node 0)
	maximum = 0.1596 (at node 4)
Injected packet length average = 1
Accepted packet length average = 1
Total in-flight flits = 4 (4 measured)
latency change    = 0.00595966
throughput change = 0.000626566
Draining all recorded packets ...
Draining remaining packets ...
Time taken is 4044 cycles
Class 0:
Packet latency average = 20.2921
	minimum = 7
	maximum = 38
Network latency average = 20.2921
	minimum = 7
	maximum = 38
Slowest packet = 1172
Flit latency average = 20.2921
	minimum = 7
	maximum = 38
Slowest flit = 1172
Fragmentation average = 0
	minimum = 0
	maximum = 0
Injected packet rate average = 0.011375
	minimum = 0.004 (at node 5)
	maximum = 0.018 (at node 1)
Accepted packet rate average = 0.011125
	minimum = 0 (at node 0)
	maximum = 0.178 (at node 4)
Injected flit rate average = 0.011375
	minimum = 0.004 (at node 5)
	maximum = 0.018 (at node 1)
Accepted flit rate average= 0.011125
	minimum = 0 (at node 0)
	maximum = 0.178 (at node 4)
Injected packet length average = 1
Accepted packet length average = 1
Total in-flight flits = 2 (0 measured)
latency change    = 1
throughput change = 1
Class 0:
Packet latency average = 20.3883
	minimum = 7
	maximum = 41
Network latency average = 20.3883
	minimum = 7
	maximum = 41
Slowest packet = 1314
Flit latency average = 20.3883
	minimum = 7
	maximum = 41
Slowest flit = 1314
Fragmentation average = 0
	minimum = 0
	maximum = 0
Injected packet rate average = 0.012
	minimum = 0.007 (at node 8)
	maximum = 0.017 (at node 6)
Accepted packet rate average = 0.01175
	minimum = 0 (at node 0)
	maximum = 0.188 (at node 4)
Injected flit rate average = 0.012
	minimum = 0.007 (at node 8)
	maximum = 0.017 (at node 6)
Accepted flit rate average= 0.01175
	minimum = 0 (at node 0)
	maximum = 0.188 (at node 4)
Injected packet length average = 1
Accepted packet length average = 1
Total in-flight flits = 4 (0 measured)
latency change    = 0.00471658
throughput change = 0.0531915
Class 0:
Packet latency average = 20.0111
	minimum = 7
	maximum = 45
Network latency average = 20.0111
	minimum = 7
	maximum = 45
Slowest packet = 1388
Flit latency average = 20.0111
	minimum = 7
	maximum = 45
Slowest flit = 1388
Fragmentation average = 0
	minimum = 0
	maximum = 0
Injected packet rate average = 0.01075
	minimum = 0.004 (at node 5)
	maximum = 0.016 (at node 1)
Accepted packet rate average = 0.01125
	minimum = 0 (at node 0)
	maximum = 0.18 (at node 4)
Injected flit rate average = 0.01075
	minimum = 0.004 (at node 5)
	maximum = 0.016 (at node 1)
Accepted flit rate average= 0.01125
	minimum = 0 (at node 0)
	maximum = 0.18 (at node 4)
Injected packet length average = 1
Accepted packet length average = 1
Total in-flight flits = 0 (0 measured)
latency change    = 0.0188489
throughput change = 0.0444444
Warmed up ...Time used is 1500 cycles
Class 0:
Packet latency average = 21.1316
	minimum = 7
	maximum = 38
Network latency average = 21.1316
	minimum = 7
	maximum = 38
Slowest packet = 1515
Flit latency average = 21.1316
	minimum = 7
	maximum = 38
Slowest flit = 1515
Fragmentation average = 0
	minimum = 0
	maximum = 0
Injected packet rate average = 0.0095
	minimum = 0.002 (at node 5)
	maximum = 0.02 (at node 7)
Accepted packet rate average = 0.0095
	minimum = 0 (at node 0)
	maximum = 0.152 (at node 4)
Injected flit rate average = 0.0095
	minimum = 0.002 (at node 5)
	maximum = 0.02 (at node 7)
Accepted flit rate average= 0.0095
	minimum = 0 (at node 0)
	maximum = 0.152 (at node 4)
Injected packet length average = 1
Accepted packet length average = 1
Total in-flight flits = 0 (0 measured)
latency change    = 0.0530234
throughput change = 0.184211
Class 0:
Packet latency average = 20.5786
	minimum = 7
	maximum = 38
Network latency average = 20.5786
	minimum = 7
	maximum = 38
Slowest packet = 1515
Flit latency average = 20.5786
	minimum = 7
	maximum = 38
Slowest flit = 1515
Fragmentation average = 0
	minimum = 0
	maximum = 0
Injected packet rate average = 0.009
	minimum = 0.004 (at node 2)
	maximum = 0.014 (at node 3)
Accepted packet rate average = 0.00875
	minimum = 0 (at node 0)
	maximum = 0.14 (at node 4)
Injected flit rate average = 0.009
	minimum = 0.004 (at node 2)
	maximum = 0.014 (at node 3)
Accepted flit rate average= 0.00875
	minimum = 0 (at node 0)
	maximum = 0.14 (at node 4)
Injected packet length average = 1
Accepted packet length average = 1
Total in-flight flits = 4 (4 measured)
latency change    = 0.026873
throughput change = 0.0857143
Class 0:
Packet latency average = 19.9636
	minimum = 7
	maximum = 38
Network latency average = 19.9636
	minimum = 7
	maximum = 38
Slowest packet = 1515
Flit latency average = 19.9636
	minimum = 7
	maximum = 38
Slowest flit = 1515
Fragmentation average = 0
	minimum = 0
	maximum = 0
Injected packet rate average = 0.00933333
	minimum = 0.004 (at node 2)
	maximum = 0.012 (at node 1)
Accepted packet rate average = 0.00916667
	minimum = 0 (at node 0)
	maximum = 0.146667 (at node 4)
Injected flit rate average = 0.00933333
	minimum = 0.004 (at node 2)
	maximum = 0.012 (at node 1)
Accepted flit rate average= 0.00916667
	minimum = 0 (at node 0)
	maximum = 0.146667 (at node 4)
Injected packet length average = 1
Accepted packet length average = 1
Total in-flight flits = 4 (4 measured)
latency change    = 0.0308028
throughput change = 0.0454545
Class 0:
Packet latency average = 19.9435
	minimum = 7
	maximum = 38
Network latency average = 19.9435
	minimum = 7
	maximum = 38
Slowest packet = 1515
Flit latency average = 19.9435
	minimum = 7
	maximum = 38
Slowest flit = 1515
Fragmentation average = 0
	minimum = 0
	maximum = 0
Injected packet rate average = 0.0095
	minimum = 0.005 (at node 2)
	maximum = 0.013 (at node 1)
Accepted packet rate average = 0.00940625
	minimum = 0 (at node 0)
	maximum = 0.1505 (at node 4)
Injected flit rate average = 0.0095
	minimum = 0.005 (at node 2)
	maximum = 0.013 (at node 1)
Accepted flit rate average= 0.00940625
	minimum = 0 (at node 0)
	maximum = 0.1505 (at node 4)
Injected packet length average = 1
Accepted packet length average = 1
Total in-flight flits = 3 (3 measured)
latency change    = 0.00100859
throughput change = 0.0254707
Class 0:
Packet latency average = 20.1513
	minimum = 7
	maximum = 42
Network latency average = 20.1513
	minimum = 7
	maximum = 42
Slowest packet = 1800
Flit latency average = 20.1513
	minimum = 7
	maximum = 42
Slowest flit = 1800
Fragmentation average = 0
	minimum = 0
	maximum = 0
Injected packet rate average = 0.00975
	minimum = 0.0072 (at node 6)
	maximum = 0.0124 (at node 1)
Accepted packet rate average = 0.00975
	minimum = 0 (at node 0)
	maximum = 0.156 (at node 4)
Injected flit rate average = 0.00975
	minimum = 0.0072 (at node 6)
	maximum = 0.0124 (at node 1)
Accepted flit rate average= 0.00975
	minimum = 0 (at node 0)
	maximum = 0.156 (at node 4)
Injected packet length average = 1
Accepted packet length average = 1
Total in-flight flits = 0 (0 measured)
latency change    = 0.01031
throughput change = 0.0352564
Draining all recorded packets ...
Draining remaining packets ...
Time taken is 4012 cycles
Class 0:
Packet latency average = 19.7073
	minimum = 7
	maximum = 33
Network latency average = 19.7073
	minimum = 7
	maximum = 33
Slowest packet = 1860
Flit latency average = 19.7073
	minimum = 7
	maximum = 33
Slowest flit = 1860
Fragmentation average = 0
	minimum = 0
	maximum = 0
Injected packet rate average = 0.0105
	minimum = 0.006 (at node 3)
	maximum = 0.018 (at node 7)
Accepted packet rate average = 0.01025
	minimum = 0 (at node 0)
	maximum = 0.164 (at node 4)
Injected flit rate average = 0.0105
	minimum = 0.006 (at node 3)
	maximum = 0.018 (at node 7)
Accepted flit rate average= 0.01025
	minimum = 0 (at node 0)
	maximum = 0.164 (at node 4)
Injected packet length average = 1
Accepted packet length average = 1
Total in-flight flits = 2 (0 measured)
latency change    = 1
throughput change = 1
Class 0:
Packet latency average = 20.5536
	minimum = 7
	maximum = 42
Network latency average = 20.5536
	minimum = 7
	maximum = 42
Slowest packet = 1998
Flit latency average = 20.5536
	minimum = 7
	maximum = 42
Slowest flit = 1998
Fragmentation average = 0
	minimum = 0
	maximum = 0
Injected packet rate average = 0.01075
	minimum = 0.006 (at node 9)
	maximum = 0.018 (at node 7)
Accepted packet rate average = 0.0105
	minimum = 0 (at node 0)
	maximum = 0.168 (at node 4)
Injected flit rate average = 0.01075
	minimum = 0.006 (at node 9)
	maximum = 0.018 (at node 7)
Accepted flit rate average= 0.0105
	minimum = 0 (at node 0)
	maximum = 0.168 (at node 4)
Injected packet length average = 1
Accepted packet length average = 1
Total in-flight flits = 4 (0 measured)
latency change    = 0.0411731
throughput change = 0.0238095
Class 0:
Packet latency average = 20.4815
	minimum = 7
	maximum = 43
Network latency average = 20.4815
	minimum = 7
	maximum = 43
Slowest packet = 2037
Flit latency average = 20.4815
	minimum = 7
	maximum = 43
Slowest flit = 2037
Fragmentation average = 0
	minimum = 0
	maximum = 0
Injected packet rate average = 0.00975
	minimum = 0.008 (at node 0)
	maximum = 0.014 (at node 6)
Accepted packet rate average = 0.010125
	minimum = 0 (at node 0)
	maximum = 0.162 (at node 4)
Injected flit rate average = 0.00975
	minimum = 0.008 (at node 0)
	maximum = 0.014 (at node 6)
Accepted flit rate average= 0.010125
	minimum = 0 (at node 0)
	maximum = 0.162 (at node 4)
Injected packet length average = 1
Accepted packet length average = 1
Total in-flight flits = 1 (0 measured)
latency change    = 0.00351976
throughput change = 0.037037
Warmed up ...Time used is 1500 cycles
Class 0:
Packet latency average = 19.5698
	minimum = 7
	maximum = 35
Network latency average = 19.5698
	minimum = 7
	maximum = 35
Slowest packet = 2137
Flit latency average = 19.5977
	minimum = 7
	maximum = 35
Slowest flit = 2137
Fragmentation average = 0
	minimum = 0
	maximum = 0
Injected packet rate average = 0.011625
	minimum = 0.002 (at node 11)
	maximum = 0.02 (at node 12)
Accepted packet rate average = 0.010875
	minimum = 0 (at node 0)
	maximum = 0.174 (at node 4)
Injected flit rate average = 0.011625
	minimum = 0.002 (at node 11)
	maximum = 0.02 (at node 12)
Accepted flit rate average= 0.010875
	minimum = 0 (at node 0)
	maximum = 0.174 (at node 4)
Injected packet length average = 1
Accepted packet length average = 1
Total in-flight flits = 7 (7 measured)
latency change    = 0.0465879
throughput change = 0.0689655
Class 0:
Packet latency average = 20.1384
	minimum = 7
	maximum = 43
Network latency average = 20.1384
	minimum = 7
	maximum = 43
Slowest packet = 2205
Flit latency average = 20.15
	minimum = 7
	maximum = 43
Slowest flit = 2205
Fragmentation average = 0
	minimum = 0
	maximum = 0
Injected packet rate average = 0.0100625
	minimum = 0.005 (at node 14)
	maximum = 0.014 (at node 6)
Accepted packet rate average = 0.01
	minimum = 0 (at node 0)
	maximum = 0.16 (at node 4)
Injected flit rate average = 0.0100625
	minimum = 0.005 (at node 14)
	maximum = 0.014 (at node 6)
Accepted flit rate average= 0.01
	minimum = 0 (at node 0)
	maximum = 0.16 (at node 4)
Injected packet length average = 1
Accepted packet length average = 1
Total in-flight flits = 2 (2 measured)
latency change    = 0.0282345
throughput change = 0.0875
Class 0:
Packet latency average = 20.0426
	minimum = 7
	maximum = 43
Network latency average = 20.0426
	minimum = 7
	maximum = 43
Slowest packet = 2205
Flit latency average = 20.0508
	minimum = 7
	maximum = 43
Slowest flit = 2205
Fragmentation average = 0
	minimum = 0
	maximum = 0
Injected packet rate average = 0.00991667
	minimum = 0.00533333 (at node 14)
	maximum = 0.0133333 (at node 9)
Accepted packet rate average = 0.00983333
	minimum = 0 (at node 0)
	maximum = 0.157333 (at node 4)
Injected flit rate average = 0.00991667
	minimum = 0.00533333 (at node 14)
	maximum = 0.0133333 (at node 9)
Accepted flit rate average= 0.00983333
	minimum = 0 (at node 0)
	maximum = 0.157333 (at node 4)
Injected packet length average = 1
Accepted packet length average = 1
Total in-flight flits = 3 (3 measured)
latency change    = 0.00478041
throughput change = 0.0169492
Class 0:
Packet latency average = 19.9444
	minimum = 7
	maximum = 43
Network latency average = 19.9444
	minimum = 7
	maximum = 43
Slowest packet = 2205
Flit latency average = 19.9511
	minimum = 7
	maximum = 43
Slowest flit = 2205
Fragmentation average = 0
	minimum = 0
	maximum = 0
Injected packet rate average = 0.00965625
	minimum = 0.006 (at node 14)
	maximum = 0.0125 (at node 9)
Accepted packet rate average = 0.00959375
	minimum = 0 (at node 0)
	maximum = 0.1535 (at node 4)
Injected flit rate average = 0.00965625
	minimum = 0.006 (at node 14)
	maximum = 0.0125 (at node 9)
Accepted flit rate average= 0.00959375
	minimum = 0 (at node 0)
	maximum = 0.1535 (at node 4)
Injected packet length average = 1
Accepted packet length average = 1
Total in-flight flits = 3 (3 measured)
latency change    = 0.0049191
throughput change = 0.0249729
Class 0:
Packet latency average = 20.0385
	minimum = 7
	maximum = 43
Network latency average = 20.0385
	minimum = 7
	maximum = 43
Slowest packet = 2205
Flit latency average = 20.0435
	minimum = 7
	maximum = 43
Slowest flit = 2205
Fragmentation average = 0
	minimum = 0
	maximum = 0
Injected packet rate average = 0.00985
	minimum = 0.006 (at node 3)
	maximum = 0.0124 (at node 7)
Accepted packet rate average = 0.009775
	minimum = 0 (at node 0)
	maximum = 0.1564 (at node 4)
Injected flit rate average = 0.00985
	minimum = 0.006 (at node 3)
	maximum = 0.0124 (at node 7)
Accepted flit rate average= 0.009775
	minimum = 0 (at node 0)
	maximum = 0.1564 (at node 4)
Injected packet length average = 1
Accepted packet length average = 1
Total in-flight flits = 4 (4 measured)
latency change    = 0.00469183
throughput change = 0.0185422
Draining all recorded packets ...
Draining remaining packets ...
Time taken is 4028 cycles
Class 0:
Packet latency average = 19.975
	minimum = 7
	maximum = 38
Network latency average = 19.975
	minimum = 7
	maximum = 38
Slowest packet = 2525
Flit latency average = 19.975
	minimum = 7
	maximum = 38
Slowest flit = 2525
Fragmentation average = 0
	minimum = 0
	maximum = 0
Injected packet rate average = 0.010375
	minimum = 0.002 (at node 0)
	maximum = 0.016 (at node 8)
Accepted packet rate average = 0.01
	minimum = 0 (at node 0)
	maximum = 0.16 (at node 4)
Injected flit rate average = 0.010375
	minimum = 0.002 (at node 0)
	maximum = 0.016 (at node 8)
Accepted flit rate average= 0.01
	minimum = 0 (at node 0)
	maximum = 0.16 (at node 4)
Injected packet length average = 1
Accepted packet length average = 1
Total in-flight flits = 3 (0 measured)
latency change    = 1
throughput change = 1
Class 0:
Packet latency average = 19.2857
	minimum = 7
	maximum = 38
Network latency average = 19.2857
	minimum = 7
	maximum = 38
Slowest packet = 2525
Flit latency average = 19.2857
	minimum = 7
	maximum = 38
Slowest flit = 2525
Fragmentation average = 0
	minimum = 0
	maximum = 0
Injected packet rate average = 0.0103125
	minimum = 0.008 (at node 0)
	maximum = 0.013 (at node 4)
Accepted packet rate average = 0.0100625
	minimum = 0 (at node 0)
	maximum = 0.161 (at node 4)
Injected flit rate average = 0.0103125
	minimum = 0.008 (at node 0)
	maximum = 0.013 (at node 4)
Accepted flit rate average= 0.0100625
	minimum = 0 (at node 0)
	maximum = 0.161 (at node 4)
Injected packet length average = 1
Accepted packet length average = 1
Total in-flight flits = 4 (0 measured)
latency change    = 0.0357407
throughput change = 0.00621118
Class 0:
Packet latency average = 20.122
	minimum = 7
	maximum = 33
Network latency average = 20.122
	minimum = 7
	maximum = 33
Slowest packet = 2690
Flit latency average = 20.122
	minimum = 7
	maximum = 33
Slowest flit = 2690
Fragmentation average = 0
	minimum = 0
	maximum = 0
Injected packet rate average = 0.010375
	minimum = 0.004 (at node 4)
	maximum = 0.022 (at node 11)
Accepted packet rate average = 0.01025
	minimum = 0 (at node 0)
	maximum = 0.164 (at node 4)
Injected flit rate average = 0.010375
	minimum = 0.004 (at node 4)
	maximum = 0.022 (at node 11)
Accepted flit rate average= 0.01025
	minimum = 0 (at node 0)
	maximum = 0.164 (at node 4)
Injected packet length average = 1
Accepted packet length average = 1
Total in-flight flits = 5 (0 measured)
latency change    = 0.0415584
throughput change = 0.0182927
Warmed up ...Time used is 1500 cycles
Class 0:
Packet latency average = 21.1864
	minimum = 7
	maximum = 38
Network latency average = 21.1864
	minimum = 7
	maximum = 38
Slowest packet = 2764
Flit latency average = 21.6094
	minimum = 7
	maximum = 38
Slowest flit = 2764
Fragmentation average = 0
	minimum = 0
	maximum = 0
Injected packet rate average = 0.0075
	minimum = 0.002 (at node 8)
	maximum = 0.014 (at node 11)
Accepted packet rate average = 0.008
	minimum = 0 (at node 0)
	maximum = 0.128 (at node 4)
Injected flit rate average = 0.0075
	minimum = 0.002 (at node 8)
	maximum = 0.014 (at node 11)
Accepted flit rate average= 0.008
	minimum = 0 (at node 0)
	maximum = 0.128 (at node 4)
Injected packet length average = 1
Accepted packet length average = 1
Total in-flight flits = 1 (1 measured)
latency change    = 0.0502439
throughput change = 0.28125
Class 0:
Packet latency average = 20
	minimum = 7
	maximum = 38
Network latency average = 20
	minimum = 7
	maximum = 38
Slowest packet = 2764
Flit latency average = 20.2276
	minimum = 7
	maximum = 38
Slowest flit = 2764
Fragmentation average = 0
	minimum = 0
	maximum = 0
Injected packet rate average = 0.00875
	minimum = 0.004 (at node 2)
	maximum = 0.014 (at node 11)
Accepted packet rate average = 0.0090625
	minimum = 0 (at node 0)
	maximum = 0.145 (at node 4)
Injected flit rate average = 0.00875
	minimum = 0.004 (at node 2)
	maximum = 0.014 (at node 11)
Accepted flit rate average= 0.0090625
	minimum = 0 (at node 0)
	maximum = 0.145 (at node 4)
Injected packet length average = 1
Accepted packet length average = 1
Total in-flight flits = 0 (0 measured)
latency change    = 0.059322
throughput change = 0.117241
Class 0:
Packet latency average = 19.9821
	minimum = 7
	maximum = 38
Network latency average = 19.9821
	minimum = 7
	maximum = 38
Slowest packet = 2764
Flit latency average = 20.1266
	minimum = 7
	maximum = 38
Slowest flit = 2764
Fragmentation average = 0
	minimum = 0
	maximum = 0
Injected packet rate average = 0.00945833
	minimum = 0.004 (at node 9)
	maximum = 0.014 (at node 11)
Accepted packet rate average = 0.00954167
	minimum = 0 (at node 0)
	maximum = 0.152667 (at node 4)
Injected flit rate average = 0.00945833
	minimum = 0.004 (at node 9)
	maximum = 0.014 (at node 11)
Accepted flit rate average= 0.00954167
	minimum = 0 (at node 0)
	maximum = 0.152667 (at node 4)
Injected packet length average = 1
Accepted packet length average = 1
Total in-flight flits = 3 (3 measured)
latency change    = 0.000893655
throughput change = 0.0502183
Class 0:
Packet latency average = 19.7663
	minimum = 7
	maximum = 38
Network latency average = 19.7663
	minimum = 7
	maximum = 38
Slowest packet = 2764
Flit latency average = 19.8818
	minimum = 7
	maximum = 38
Slowest flit = 2764
Fragmentation average = 0
	minimum = 0
	maximum = 0
Injected packet rate average = 0.009125
	minimum = 0.003 (at node 9)
	maximum = 0.0145 (at node 11)
Accepted packet rate average = 0.00925
	minimum = 0 (at node 0)
	maximum = 0.148 (at node 4)
Injected flit rate average = 0.009125
	minimum = 0.003 (at node 9)
	maximum = 0.0145 (at node 11)
Accepted flit rate average= 0.00925
	minimum = 0 (at node 0)
	maximum = 0.148 (at node 4)
Injected packet length average = 1
Accepted packet length average = 1
Total in-flight flits = 1 (1 measured)
latency change    = 0.0109186
throughput change = 0.0315315
Class 0:
Packet latency average = 20.0956
	minimum = 7
	maximum = 42
Network latency average = 20.0956
	minimum = 7
	maximum = 42
Slowest packet = 3054
Flit latency average = 20.1833
	minimum = 7
	maximum = 42
Slowest flit = 3054
Fragmentation average = 0
	minimum = 0
	maximum = 0
Injected packet rate average = 0.0092
	minimum = 0.0044 (at node 9)
	maximum = 0.0136 (at node 11)
Accepted packet rate average = 0.009275
	minimum = 0 (at node 0)
	maximum = 0.1484 (at node 4)
Injected flit rate average = 0.0092
	minimum = 0.0044 (at node 9)
	maximum = 0.0136 (at node 11)
Accepted flit rate average= 0.009275
	minimum = 0 (at node 0)
	maximum = 0.1484 (at node 4)
Injected packet length average = 1
Accepted packet length average = 1
Total in-flight flits = 2 (2 measured)
latency change    = 0.0163869
throughput change = 0.00269542
Class 0:
Packet latency average = 19.9284
	minimum = 7
	maximum = 42
Network latency average = 19.9284
	minimum = 7
	maximum = 42
Slowest packet = 3054
Flit latency average = 20.0046
	minimum = 7
	maximum = 42
Slowest flit = 3054
Fragmentation average = 0
	minimum = 0
	maximum = 0
Injected packet rate average = 0.0090625
	minimum = 0.00466667 (at node 9)
	maximum = 0.0133333 (at node 11)
Accepted packet rate average = 0.009125
	minimum = 0 (at node 0)
	maximum = 0.146 (at node 4)
Injected flit rate average = 0.0090625
	minimum = 0.00466667 (at node 9)
	maximum = 0.0133333 (at node 11)
Accepted flit rate average= 0.009125
	minimum = 0 (at node 0)
	maximum = 0.146 (at node 4)
Injected packet length average = 1
Accepted packet length average = 1
Total in-flight flits = 2 (2 measured)
latency change    = 0.00839113
throughput change = 0.0164384
Draining all recorded packets ...
Draining remaining packets ...
Time taken is 4549 cycles
Class 0:
Packet latency average = 19.5854
	minimum = 7
	maximum = 37
Network latency average = 19.5854
	minimum = 7
	maximum = 37
Slowest packet = 3172
Flit latency average = 19.5854
	minimum = 7
	maximum = 37
Slowest flit = 3172
Fragmentation average = 0
	minimum = 0
	maximum = 0
Injected packet rate average = 0.0105
	minimum = 0.002 (at node 6)
	maximum = 0.02 (at node 10)
Accepted packet rate average = 0.01025
	minimum = 0 (at node 0)
	maximum = 0.164 (at node 4)
Injected flit rate average = 0.0105
	minimum = 0.002 (at node 6)
	maximum = 0.02 (at node 10)
Accepted flit rate average= 0.01025
	minimum = 0 (at node 0)
	maximum = 0.164 (at node 4)
Injected packet length average = 1
Accepted packet length average = 1
Total in-flight flits = 2 (0 measured)
latency change    = 1
throughput change = 1
Class 0:
Packet latency average = 20.2785
	minimum = 7
	maximum = 42
Network latency average = 20.2785
	minimum = 7
	maximum = 42
Slowest packet = 3313
Flit latency average = 20.2785
	minimum = 7
	maximum = 42
Slowest flit = 3313
Fragmentation average = 0
	minimum = 0
	maximum = 0
Injected packet rate average = 0.010125
	minimum = 0.004 (at node 6)
	maximum = 0.015 (at node 7)
Accepted packet rate average = 0.009875
	minimum = 0 (at node 0)
	maximum = 0.158 (at node 4)
Injected flit rate average = 0.010125
	minimum = 0.004 (at node 6)
	maximum = 0.015 (at node 7)
Accepted flit rate average= 0.009875
	minimum = 0 (at node 0)
	maximum = 0.158 (at node 4)
Injected packet length average = 1
Accepted packet length average = 1
Total in-flight flits = 4 (0 measured)
latency change    = 0.0341798
throughput change = 0.0379747
Class 0:
Packet latency average = 20.1724
	minimum = 7
	maximum = 38
Network latency average = 20.1724
	minimum = 7
	maximum = 38
Slowest packet = 3393
Flit latency average = 20.1724
	minimum = 7
	maximum = 38
Slowest flit = 3393
Fragmentation average = 0
	minimum = 0
	maximum = 0
Injected packet rate average = 0.0105
	minimum = 0.004 (at node 2)
	maximum = 0.028 (at node 12)
Accepted packet rate average = 0.010875
	minimum = 0 (at node 0)
	maximum = 0.174 (at node 4)
Injected flit rate average = 0.0105
	minimum = 0.004 (at node 2)
	maximum = 0.028 (at node 12)
Accepted flit rate average= 0.010875
	minimum = 0 (at node 0)
	maximum = 0.174 (at node 4)
Injected packet length average = 1
Accepted packet length average = 1
Total in-flight flits = 1 (0 measured)
latency change    = 0.00525803
throughput change = 0.091954
Warmed up ...Time used is 1500 cycles
Class 0:
Packet latency average = 19.8696
	minimum = 7
	maximum = 36
Network latency average = 19.8696
	minimum = 7
	maximum = 36
Slowest packet = 3464
Flit latency average = 19.7849
	minimum = 7
	maximum = 36
Slowest flit = 3464
Fragmentation average = 0
	minimum = 0
	maximum = 0
Injected packet rate average = 0.01175
	minimum = 0.004 (at node 1)
	maximum = 0.02 (at node 0)
Accepted packet rate average = 0.011625
	minimum = 0 (at node 0)
	maximum = 0.186 (at node 4)
Injected flit rate average = 0.01175
	minimum = 0.004 (at node 1)
	maximum = 0.02 (at node 0)
Accepted flit rate average= 0.011625
	minimum = 0 (at node 0)
	maximum = 0.186 (at node 4)
Injected packet length average = 1
Accepted packet length average = 1
Total in-flight flits = 2 (2 measured)
latency change    = 0.0152418
throughput change = 0.0645161
Class 0:
Packet latency average = 20.3174
	minimum = 7
	maximum = 36
Network latency average = 20.3174
	minimum = 7
	maximum = 36
Slowest packet = 3464
Flit latency average = 20.2679
	minimum = 7
	maximum = 36
Slowest flit = 3464
Fragmentation average = 0
	minimum = 0
	maximum = 0
Injected packet rate average = 0.0106875
	minimum = 0.004 (at node 12)
	maximum = 0.021 (at node 14)
Accepted packet rate average = 0.0105
	minimum = 0 (at node 0)
	maximum = 0.168 (at node 4)
Injected flit rate average = 0.0106875
	minimum = 0.004 (at node 12)
	maximum = 0.021 (at node 14)
Accepted flit rate average= 0.0105
	minimum = 0 (at node 0)
	maximum = 0.168 (at node 4)
Injected packet length average = 1
Accepted packet length average = 1
Total in-flight flits = 4 (4 measured)
latency change    = 0.0220403
throughput change = 0.107143
Class 0:
Packet latency average = 19.8952
	minimum = 7
	maximum = 36
Network latency average = 19.8952
	minimum = 7
	maximum = 36
Slowest packet = 3464
Flit latency average = 19.8609
	minimum = 7
	maximum = 36
Slowest flit = 3464
Fragmentation average = 0
	minimum = 0
	maximum = 0
Injected packet rate average = 0.00970833
	minimum = 0.00466667 (at node 8)
	maximum = 0.0146667 (at node 14)
Accepted packet rate average = 0.00958333
	minimum = 0 (at node 0)
	maximum = 0.153333 (at node 4)
Injected flit rate average = 0.00970833
	minimum = 0.00466667 (at node 8)
	maximum = 0.0146667 (at node 14)
Accepted flit rate average= 0.00958333
	minimum = 0 (at node 0)
	maximum = 0.153333 (at node 4)
Injected packet length average = 1
Accepted packet length average = 1
Total in-flight flits = 4 (4 measured)
latency change    = 0.0212196
throughput change = 0.0956522
Class 0:
Packet latency average = 20.2349
	minimum = 7
	maximum = 38
Network latency average = 20.2349
	minimum = 7
	maximum = 38
Slowest packet = 3659
Flit latency average = 20.2074
	minimum = 7
	maximum = 38
Slowest flit = 3659
Fragmentation average = 0
	minimum = 0
	maximum = 0
Injected packet rate average = 0.00940625
	minimum = 0.0055 (at node 2)
	maximum = 0.0135 (at node 11)
Accepted packet rate average = 0.00934375
	minimum = 0 (at node 0)
	maximum = 0.1495 (at node 4)
Injected flit rate average = 0.00940625
	minimum = 0.0055 (at node 2)
	maximum = 0.0135 (at node 11)
Accepted flit rate average= 0.00934375
	minimum = 0 (at node 0)
	maximum = 0.1495 (at node 4)
Injected packet length average = 1
Accepted packet length average = 1
Total in-flight flits = 3 (3 measured)
latency change    = 0.016788
throughput change = 0.025641
Class 0:
Packet latency average = 20.2005
	minimum = 7
	maximum = 41
Network latency average = 20.2005
	minimum = 7
	maximum = 41
Slowest packet = 3764
Flit latency average = 20.1787
	minimum = 7
	maximum = 41
Slowest flit = 3764
Fragmentation average = 0
	minimum = 0
	maximum = 0
Injected packet rate average = 0.0094
	minimum = 0.006 (at node 2)
	maximum = 0.0136 (at node 10)
Accepted packet rate average = 0.009375
	minimum = 0 (at node 0)
	maximum = 0.15 (at node 4)
Injected flit rate average = 0.0094
	minimum = 0.006 (at node 2)
	maximum = 0.0136 (at node 10)
Accepted flit rate average= 0.009375
	minimum = 0 (at node 0)
	maximum = 0.15 (at node 4)
Injected packet length average = 1
Accepted packet length average = 1
Total in-flight flits = 2 (2 measured)
latency change    = 0.00170117
throughput change = 0.00333333
Class 0:
Packet latency average = 20.0022
	minimum = 7
	maximum = 41
Network latency average = 20.0022
	minimum = 7
	maximum = 41
Slowest packet = 3764
Flit latency average = 19.9846
	minimum = 7
	maximum = 41
Slowest flit = 3764
Fragmentation average = 0
	minimum = 0
	maximum = 0
Injected packet rate average = 0.00947917
	minimum = 0.00633333 (at node 8)
	maximum = 0.0136667 (at node 11)
Accepted packet rate average = 0.00945833
	minimum = 0 (at node 0)
	maximum = 0.151333 (at node 4)
Injected flit rate average = 0.00947917
	minimum = 0.00633333 (at node 8)
	maximum = 0.0136667 (at node 11)
Accepted flit rate average= 0.00945833
	minimum = 0 (at node 0)
	maximum = 0.151333 (at node 4)
Injected packet length average = 1
Accepted packet length average = 1
Total in-flight flits = 2 (2 measured)
latency change    = 0.00991527
throughput change = 0.00881057
Draining all recorded packets ...
Draining remaining packets ...
Time taken is 4542 cycles
Class 0:
Packet latency average = 20.2857
	minimum = 7
	maximum = 34
Network latency average = 20.2857
	minimum = 7
	maximum = 34
Slowest packet = 3894
Flit latency average = 20.2857
	minimum = 7
	maximum = 34
Slowest flit = 3894
Fragmentation average = 0
	minimum = 0
	maximum = 0
Injected packet rate average = 0.00925
	minimum = 0 (at node 10)
	maximum = 0.018 (at node 14)
Accepted packet rate average = 0.00875
	minimum = 0 (at node 0)
	maximum = 0.14 (at node 4)
Injected flit rate average = 0.00925
	minimum = 0 (at node 10)
	maximum = 0.018 (at node 14)
Accepted flit rate average= 0.00875
	minimum = 0 (at node 0)
	maximum = 0.14 (at node 4)
Injected packet length average = 1
Accepted packet length average = 1
Total in-flight flits = 4 (0 measured)
latency change    = 1
throughput change = 1
Class 0:
Packet latency average = 21.05
	minimum = 7
	maximum = 39
Network latency average = 21.05
	minimum = 7
	maximum = 39
Slowest packet = 3965
Flit latency average = 21.05
	minimum = 7
	maximum = 39
Slowest flit = 3965
Fragmentation average = 0
	minimum = 0
	maximum = 0
Injected packet rate average = 0.0101875
	minimum = 0.004 (at node 12)
	maximum = 0.017 (at node 14)
Accepted packet rate average = 0.01
	minimum = 0 (at node 0)
	maximum = 0.16 (at node 4)
Injected flit rate average = 0.0101875
	minimum = 0.004 (at node 12)
	maximum = 0.017 (at node 14)
Accepted flit rate average= 0.01
	minimum = 0 (at node 0)
	maximum = 0.16 (at node 4)
Injected packet length average = 1
Accepted packet length average = 1
Total in-flight flits = 3 (0 measured)
latency change    = 0.0363081
throughput change = 0.125
Class 0:
Packet latency average = 19.7778
	minimum = 7
	maximum = 43
Network latency average = 19.7778
	minimum = 7
	maximum = 43
Slowest packet = 4038
Flit latency average = 19.7778
	minimum = 7
	maximum = 43
Slowest flit = 4038
Fragmentation average = 0
	minimum = 0
	maximum = 0
Injected packet rate average = 0.011375
	minimum = 0.006 (at node 4)
	maximum = 0.022 (at node 8)
Accepted packet rate average = 0.01125
	minimum = 0 (at node 0)
	maximum = 0.18 (at node 4)
Injected flit rate average = 0.011375
	minimum = 0.006 (at node 4)
	maximum = 0.022 (at node 8)
Accepted flit rate average= 0.01125
	minimum = 0 (at node 0)
	maximum = 0.18 (at node 4)
Injected packet length average = 1
Accepted packet length average = 1
Total in-flight flits = 4 (0 measured)
latency change    = 0.0643258
throughput change = 0.111111
Warmed up ...Time used is 1500 cycles
Class 0:
Packet latency average = 20.0656
	minimum = 7
	maximum = 34
Network latency average = 20.0656
	minimum = 7
	maximum = 34
Slowest packet = 4186
Flit latency average = 20.0462
	minimum = 7
	maximum = 34
Slowest flit = 4186
Fragmentation average = 0
	minimum = 0
	maximum = 0
Injected packet rate average = 0.008375
	minimum = 0.004 (at node 6)
	maximum = 0.012 (at node 2)
Accepted packet rate average = 0.008125
	minimum = 0 (at node 0)
	maximum = 0.13 (at node 4)
Injected flit rate average = 0.008375
	minimum = 0.004 (at node 6)
	maximum = 0.012 (at node 2)
Accepted flit rate average= 0.008125
	minimum = 0 (at node 0)
	maximum = 0.13 (at node 4)
Injected packet length average = 1
Accepted packet length average = 1
Total in-flight flits = 6 (6 measured)
latency change    = 0.0143428
throughput change = 0.384615
Class 0:
Packet latency average = 19.8531
	minimum = 7
	maximum = 34
Network latency average = 19.8531
	minimum = 7
	maximum = 34
Slowest packet = 4186
Flit latency average = 19.8503
	minimum = 7
	maximum = 34
Slowest flit = 4186
Fragmentation average = 0
	minimum = 0
	maximum = 0
Injected packet rate average = 0.009375
	minimum = 0.004 (at node 7)
	maximum = 0.014 (at node 2)
Accepted packet rate average = 0.0091875
	minimum = 0 (at node 0)
	maximum = 0.147 (at node 4)
Injected flit rate average = 0.009375
	minimum = 0.004 (at node 7)
	maximum = 0.014 (at node 2)
Accepted flit rate average= 0.0091875
	minimum = 0 (at node 0)
	maximum = 0.147 (at node 4)
Injected packet length average = 1
Accepted packet length average = 1
Total in-flight flits = 7 (7 measured)
latency change    = 0.0106999
throughput change = 0.115646
Class 0:
Packet latency average = 19.7004
	minimum = 7
	maximum = 42
Network latency average = 19.7004
	minimum = 7
	maximum = 42
Slowest packet = 4289
Flit latency average = 19.7013
	minimum = 7
	maximum = 42
Slowest flit = 4289
Fragmentation average = 0
	minimum = 0
	maximum = 0
Injected packet rate average = 0.009625
	minimum = 0.00533333 (at node 7)
	maximum = 0.0153333 (at node 8)
Accepted packet rate average = 0.009625
	minimum = 0 (at node 0)
	maximum = 0.154 (at node 4)
Injected flit rate average = 0.009625
	minimum = 0.00533333 (at node 7)
	maximum = 0.0153333 (at node 8)
Accepted flit rate average= 0.009625
	minimum = 0 (at node 0)
	maximum = 0.154 (at node 4)
Injected packet length average = 1
Accepted packet length average = 1
Total in-flight flits = 4 (4 measured)
latency change    = 0.00775142
throughput change = 0.0454545
Class 0:
Packet latency average = 19.7622
	minimum = 7
	maximum = 42
Network latency average = 19.7622
	minimum = 7
	maximum = 42
Slowest packet = 4289
Flit latency average = 19.7621
	minimum = 7
	maximum = 42
Slowest flit = 4289
Fragmentation average = 0
	minimum = 0
	maximum = 0
Injected packet rate average = 0.009625
	minimum = 0.006 (at node 7)
	maximum = 0.013 (at node 8)
Accepted packet rate average = 0.00971875
	minimum = 0 (at node 0)
	maximum = 0.1555 (at node 4)
Injected flit rate average = 0.009625
	minimum = 0.006 (at node 7)
	maximum = 0.013 (at node 8)
Accepted flit rate average= 0.00971875
	minimum = 0 (at node 0)
	maximum = 0.1555 (at node 4)
Injected packet length average = 1
Accepted packet length average = 1
Total in-flight flits = 1 (1 measured)
latency change    = 0.00312589
throughput change = 0.0096463
Class 0:
Packet latency average = 19.2487
	minimum = 7
	maximum = 42
Network latency average = 19.2487
	minimum = 7
	maximum = 42
Slowest packet = 4289
Flit latency average = 19.2537
	minimum = 7
	maximum = 42
Slowest flit = 4289
Fragmentation average = 0
	minimum = 0
	maximum = 0
Injected packet rate average = 0.01005
	minimum = 0.0064 (at node 7)
	maximum = 0.0156 (at node 8)
Accepted packet rate average = 0.01005
	minimum = 0 (at node 0)
	maximum = 0.1608 (at node 4)
Injected flit rate average = 0.01005
	minimum = 0.0064 (at node 7)
	maximum = 0.0156 (at node 8)
Accepted flit rate average= 0.01005
	minimum = 0 (at node 0)
	maximum = 0.1608 (at node 4)
Injected packet length average = 1
Accepted packet length average = 1
Total in-flight flits = 4 (4 measured)
latency change    = 0.0266756
throughput change = 0.0329602
Draining all recorded packets ...
Draining remaining packets ...
Time taken is 4019 cycles
Class 0:
Packet latency average = 20.3944
	minimum = 7
	maximum = 40
Network latency average = 20.3944
	minimum = 7
	maximum = 40
Slowest packet = 4548
Flit latency average = 20.3944
	minimum = 7
	maximum = 40
Slowest flit = 4548
Fragmentation average = 0
	minimum = 0
	maximum = 0
Injected packet rate average = 0.0095
	minimum = 0.004 (at node 2)
	maximum = 0.02 (at node 5)
Accepted packet rate average = 0.008875
	minimum = 0 (at node 0)
	maximum = 0.142 (at node 4)
Injected flit rate average = 0.0095
	minimum = 0.004 (at node 2)
	maximum = 0.02 (at node 5)
Accepted flit rate average= 0.008875
	minimum = 0 (at node 0)
	maximum = 0.142 (at node 4)
Injected packet length average = 1
Accepted packet length average = 1
Total in-flight flits = 5 (0 measured)
latency change    = 1
throughput change = 1
Class 0:
Packet latency average = 21.2289
	minimum = 7
	maximum = 52
Network latency average = 21.2289
	minimum = 7
	maximum = 52
Slowest packet = 4645
Flit latency average = 21.2289
	minimum = 7
	maximum = 52
Slowest flit = 4645
Fragmentation average = 0
	minimum = 0
	maximum = 0
Injected packet rate average = 0.0105625
	minimum = 0.005 (at node 14)
	maximum = 0.02 (at node 5)
Accepted packet rate average = 0.010375
	minimum = 0 (at node 0)
	maximum = 0.166 (at node 4)
Injected flit rate average = 0.0105625
	minimum = 0.005 (at node 14)
	maximum = 0.02 (at node 5)
Accepted flit rate average= 0.010375
	minimum = 0 (at node 0)
	maximum = 0.166 (at node 4)
Injected packet length average = 1
Accepted packet length average = 1
Total in-flight flits = 3 (0 measured)
latency change    = 0.0393119
throughput change = 0.144578
Class 0:
Packet latency average = 21.0145
	minimum = 7
	maximum = 35
Network latency average = 21.0145
	minimum = 7
	maximum = 35
Slowest packet = 4724
Flit latency average = 21.0145
	minimum = 7
	maximum = 35
Slowest flit = 4724
Fragmentation average = 0
	minimum = 0
	maximum = 0
Injected packet rate average = 0.008625
	minimum = 0.002 (at node 0)
	maximum = 0.014 (at node 2)
Accepted packet rate average = 0.008625
	minimum = 0 (at node 0)
	maximum = 0.138 (at node 4)
Injected flit rate average = 0.008625
	minimum = 0.002 (at node 0)
	maximum = 0.014 (at node 2)
Accepted flit rate average= 0.008625
	minimum = 0 (at node 0)
	maximum = 0.138 (at node 4)
Injected packet length average = 1
Accepted packet length average = 1
Total in-flight flits = 3 (0 measured)
latency change    = 0.0102036
throughput change = 0.202899
Warmed up ...Time used is 1500 cycles
Class 0:
Packet latency average = 20.3286
	minimum = 7
	maximum = 40
Network latency average = 20.3286
	minimum = 7
	maximum = 40
Slowest packet = 4811
Flit latency average = 20.4658
	minimum = 7
	maximum = 40
Slowest flit = 4811
Fragmentation average = 0
	minimum = 0
	maximum = 0
Injected packet rate average = 0.009125
	minimum = 0.002 (at node 3)
	maximum = 0.018 (at node 15)
Accepted packet rate average = 0.009125
	minimum = 0 (at node 0)
	maximum = 0.146 (at node 4)
Injected flit rate average = 0.009125
	minimum = 0.002 (at node 3)
	maximum = 0.018 (at node 15)
Accepted flit rate average= 0.009125
	minimum = 0 (at node 0)
	maximum = 0.146 (at node 4)
Injected packet length average = 1
Accepted packet length average = 1
Total in-flight flits = 3 (3 measured)
latency change    = 0.0337417
throughput change = 0.0547945
Class 0:
Packet latency average = 20.0938
	minimum = 7
	maximum = 40
Network latency average = 20.0938
	minimum = 7
	maximum = 40
Slowest packet = 4811
Flit latency average = 20.1595
	minimum = 7
	maximum = 40
Slowest flit = 4811
Fragmentation average = 0
	minimum = 0
	maximum = 0
Injected packet rate average = 0.010125
	minimum = 0.004 (at node 9)
	maximum = 0.019 (at node 0)
Accepted packet rate average = 0.0101875
	minimum = 0 (at node 0)
	maximum = 0.163 (at node 4)
Injected flit rate average = 0.010125
	minimum = 0.004 (at node 9)
	maximum = 0.019 (at node 0)
Accepted flit rate average= 0.0101875
	minimum = 0 (at node 0)
	maximum = 0.163 (at node 4)
Injected packet length average = 1
Accepted packet length average = 1
Total in-flight flits = 2 (2 measured)
latency change    = 0.0116863
throughput change = 0.104294
Class 0:
Packet latency average = 20.1392
	minimum = 7
	maximum = 40
Network latency average = 20.1392
	minimum = 7
	maximum = 40
Slowest packet = 4811
Flit latency average = 20.1833
	minimum = 7
	maximum = 40
Slowest flit = 4811
Fragmentation average = 0
	minimum = 0
	maximum = 0
Injected packet rate average = 0.00991667
	minimum = 0.006 (at node 3)
	maximum = 0.014 (at node 10)
Accepted packet rate average = 0.01
	minimum = 0 (at node 0)
	maximum = 0.16 (at node 4)
Injected flit rate average = 0.00991667
	minimum = 0.006 (at node 3)
	maximum = 0.014 (at node 10)
Accepted flit rate average= 0.01
	minimum = 0 (at node 0)
	maximum = 0.16 (at node 4)
Injected packet length average = 1
Accepted packet length average = 1
Total in-flight flits = 1 (1 measured)
latency change    = 0.0022588
throughput change = 0.01875
Class 0:
Packet latency average = 20.6161
	minimum = 7
	maximum = 43
Network latency average = 20.6161
	minimum = 7
	maximum = 43
Slowest packet = 5029
Flit latency average = 20.6442
	minimum = 7
	maximum = 43
Slowest flit = 5029
Fragmentation average = 0
	minimum = 0
	maximum = 0
Injected packet rate average = 0.0101563
	minimum = 0.0075 (at node 6)
	maximum = 0.0145 (at node 15)
Accepted packet rate average = 0.0101875
	minimum = 0 (at node 0)
	maximum = 0.163 (at node 4)
Injected flit rate average = 0.0101563
	minimum = 0.0075 (at node 6)
	maximum = 0.0145 (at node 15)
Accepted flit rate average= 0.0101875
	minimum = 0 (at node 0)
	maximum = 0.163 (at node 4)
Injected packet length average = 1
Accepted packet length average = 1
Total in-flight flits = 2 (2 measured)
latency change    = 0.0231304
throughput change = 0.0184049
Class 0:
Packet latency average = 20.6225
	minimum = 7
	maximum = 47
Network latency average = 20.6225
	minimum = 7
	maximum = 47
Slowest packet = 5093
Flit latency average = 20.6452
	minimum = 7
	maximum = 47
Slowest flit = 5093
Fragmentation average = 0
	minimum = 0
	maximum = 0
Injected packet rate average = 0.01005
	minimum = 0.0076 (at node 7)
	maximum = 0.0136 (at node 15)
Accepted packet rate average = 0.010075
	minimum = 0 (at node 0)
	maximum = 0.1612 (at node 4)
Injected flit rate average = 0.01005
	minimum = 0.0076 (at node 7)
	maximum = 0.0136 (at node 15)
Accepted flit rate average= 0.010075
	minimum = 0 (at node 0)
	maximum = 0.1612 (at node 4)
Injected packet length average = 1
Accepted packet length average = 1
Total in-flight flits = 2 (2 measured)
latency change    = 0.000310386
throughput change = 0.0111663
Draining all recorded packets ...
Draining remaining packets ...
Time taken is 4039 cycles
Class 0:
Packet latency average = 20.8028
	minimum = 7
	maximum = 33
Network latency average = 20.8028
	minimum = 7
	maximum = 33
Slowest packet = 5231
Flit latency average = 20.8028
	minimum = 7
	maximum = 33
Slowest flit = 5231
Fragmentation average = 0
	minimum = 0
	maximum = 0
Injected packet rate average = 0.00925
	minimum = 0.004 (at node 5)
	maximum = 0.016 (at node 3)
Accepted packet rate average = 0.008875
	minimum = 0 (at node 0)
	maximum = 0.142 (at node 4)
Injected flit rate average = 0.00925
	minimum = 0.004 (at node 5)
	maximum = 0.016 (at node 3)
Accepted flit rate average= 0.008875
	minimum = 0 (at node 0)
	maximum = 0.142 (at node 4)
Injected packet length average = 1
Accepted packet length average = 1
Total in-flight flits = 3 (0 measured)
latency change    = 1
throughput change = 1
Class 0:
Packet latency average = 20.8462
	minimum = 7
	maximum = 37
Network latency average = 20.8462
	minimum = 7
	maximum = 37
Slowest packet = 5270
Flit latency average = 20.8462
	minimum = 7
	maximum = 37
Slowest flit = 5270
Fragmentation average = 0
	minimum = 0
	maximum = 0
Injected packet rate average = 0.0099375
	minimum = 0.005 (at node 5)
	maximum = 0.017 (at node 12)
Accepted packet rate average = 0.00975
	minimum = 0 (at node 0)
	maximum = 0.156 (at node 4)
Injected flit rate average = 0.0099375
	minimum = 0.005 (at node 5)
	maximum = 0.017 (at node 12)
Accepted flit rate average= 0.00975
	minimum = 0 (at node 0)
	maximum = 0.156 (at node 4)
Injected packet length average = 1
Accepted packet length average = 1
Total in-flight flits = 3 (0 measured)
latency change    = 0.00207889
throughput change = 0.0897436
Class 0:
Packet latency average = 20.88
	minimum = 7
	maximum = 40
Network latency average = 20.88
	minimum = 7
	maximum = 40
Slowest packet = 5347
Flit latency average = 20.88
	minimum = 7
	maximum = 40
Slowest flit = 5347
Fragmentation average = 0
	minimum = 0
	maximum = 0
Injected packet rate average = 0.009
	minimum = 0.004 (at node 5)
	maximum = 0.018 (at node 8)
Accepted packet rate average = 0.009375
	minimum = 0 (at node 0)
	maximum = 0.15 (at node 4)
Injected flit rate average = 0.009
	minimum = 0.004 (at node 5)
	maximum = 0.018 (at node 8)
Accepted flit rate average= 0.009375
	minimum = 0 (at node 0)
	maximum = 0.15 (at node 4)
Injected packet length average = 1
Accepted packet length average = 1
Total in-flight flits = 0 (0 measured)
latency change    = 0.00162098
throughput change = 0.04
Warmed up ...Time used is 1500 cycles
Class 0:
Packet latency average = 19.4154
	minimum = 7
	maximum = 33
Network latency average = 19.4154
	minimum = 7
	maximum = 33
Slowest packet = 5410
Flit latency average = 19.4154
	minimum = 7
	maximum = 33
Slowest flit = 5410
Fragmentation average = 0
	minimum = 0
	maximum = 0
Injected packet rate average = 0.008375
	minimum = 0.004 (at node 2)
	maximum = 0.014 (at node 9)
Accepted packet rate average = 0.008125
	minimum = 0 (at node 0)
	maximum = 0.13 (at node 4)
Injected flit rate average = 0.008375
	minimum = 0.004 (at node 2)
	maximum = 0.014 (at node 9)
Accepted flit rate average= 0.008125
	minimum = 0 (at node 0)
	maximum = 0.13 (at node 4)
Injected packet length average = 1
Accepted packet length average = 1
Total in-flight flits = 2 (2 measured)
latency change    = 0.0754358
throughput change = 0.153846
Class 0:
Packet latency average = 19.3597
	minimum = 7
	maximum = 36
Network latency average = 19.3597
	minimum = 7
	maximum = 36
Slowest packet = 5490
Flit latency average = 19.3597
	minimum = 7
	maximum = 36
Slowest flit = 5490
Fragmentation average = 0
	minimum = 0
	maximum = 0
Injected packet rate average = 0.008875
	minimum = 0.004 (at node 11)
	maximum = 0.015 (at node 12)
Accepted packet rate average = 0.0086875
	minimum = 0 (at node 0)
	maximum = 0.139 (at node 4)
Injected flit rate average = 0.008875
	minimum = 0.004 (at node 11)
	maximum = 0.015 (at node 12)
Accepted flit rate average= 0.0086875
	minimum = 0 (at node 0)
	maximum = 0.139 (at node 4)
Injected packet length average = 1
Accepted packet length average = 1
Total in-flight flits = 3 (3 measured)
latency change    = 0.00287568
throughput change = 0.0647482
Class 0:
Packet latency average = 19.6351
	minimum = 7
	maximum = 36
Network latency average = 19.6351
	minimum = 7
	maximum = 36
Slowest packet = 5490
Flit latency average = 19.6351
	minimum = 7
	maximum = 36
Slowest flit = 5490
Fragmentation average = 0
	minimum = 0
	maximum = 0
Injected packet rate average = 0.00883333
	minimum = 0.004 (at node 0)
	maximum = 0.0133333 (at node 13)
Accepted packet rate average = 0.00879167
	minimum = 0 (at node 0)
	maximum = 0.140667 (at node 4)
Injected flit rate average = 0.00883333
	minimum = 0.004 (at node 0)
	maximum = 0.0133333 (at node 13)
Accepted flit rate average= 0.00879167
	minimum = 0 (at node 0)
	maximum = 0.140667 (at node 4)
Injected packet length average = 1
Accepted packet length average = 1
Total in-flight flits = 1 (1 measured)
latency change    = 0.0140238
throughput change = 0.0118483
Class 0:
Packet latency average = 19.8552
	minimum = 7
	maximum = 36
Network latency average = 19.8552
	minimum = 7
	maximum = 36
Slowest packet = 5490
Flit latency average = 19.8552
	minimum = 7
	maximum = 36
Slowest flit = 5490
Fragmentation average = 0
	minimum = 0
	maximum = 0
Injected packet rate average = 0.00921875
	minimum = 0.0055 (at node 0)
	maximum = 0.0135 (at node 6)
Accepted packet rate average = 0.0090625
	minimum = 0 (at node 0)
	maximum = 0.145 (at node 4)
Injected flit rate average = 0.00921875
	minimum = 0.0055 (at node 0)
	maximum = 0.0135 (at node 6)
Accepted flit rate average= 0.0090625
	minimum = 0 (at node 0)
	maximum = 0.145 (at node 4)
Injected packet length average = 1
Accepted packet length average = 1
Total in-flight flits = 5 (5 measured)
latency change    = 0.0110853
throughput change = 0.0298851
Class 0:
Packet latency average = 19.6389
	minimum = 7
	maximum = 36
Network latency average = 19.6389
	minimum = 7
	maximum = 36
Slowest packet = 5490
Flit latency average = 19.6389
	minimum = 7
	maximum = 36
Slowest flit = 5490
Fragmentation average = 0
	minimum = 0
	maximum = 0
Injected packet rate average = 0.00915
	minimum = 0.0056 (at node 11)
	maximum = 0.0132 (at node 13)
Accepted packet rate average = 0.009
	minimum = 0 (at node 0)
	maximum = 0.144 (at node 4)
Injected flit rate average = 0.00915
	minimum = 0.0056 (at node 11)
	maximum = 0.0132 (at node 13)
Accepted flit rate average= 0.009
	minimum = 0 (at node 0)
	maximum = 0.144 (at node 4)
Injected packet length average = 1
Accepted packet length average = 1
Total in-flight flits = 6 (6 measured)
latency change    = 0.011013
throughput change = 0.00694444
Draining all recorded packets ...
Draining remaining packets ...
Time taken is 4044 cycles
Class 0:
Packet latency average = 20.619
	minimum = 7
	maximum = 42
Network latency average = 20.619
	minimum = 7
	maximum = 42
Slowest packet = 5801
Flit latency average = 20.619
	minimum = 7
	maximum = 42
Slowest flit = 5801
Fragmentation average = 0
	minimum = 0
	maximum = 0
Injected packet rate average = 0.01075
	minimum = 0.004 (at node 7)
	maximum = 0.02 (at node 4)
Accepted packet rate average = 0.0105
	minimum = 0 (at node 0)
	maximum = 0.168 (at node 4)
Injected flit rate average = 0.01075
	minimum = 0.004 (at node 7)
	maximum = 0.02 (at node 4)
Accepted flit rate average= 0.0105
	minimum = 0 (at node 0)
	maximum = 0.168 (at node 4)
Injected packet length average = 1
Accepted packet length average = 1
Total in-flight flits = 2 (0 measured)
latency change    = 1
throughput change = 1
Class 0:
Packet latency average = 20.3052
	minimum = 7
	maximum = 42
Network latency average = 20.3052
	minimum = 7
	maximum = 42
Slowest packet = 5801
Flit latency average = 20.3052
	minimum = 7
	maximum = 42
Slowest flit = 5801
Fragmentation average = 0
	minimum = 0
	maximum = 0
Injected packet rate average = 0.009875
	minimum = 0.004 (at node 9)
	maximum = 0.015 (at node 12)
Accepted packet rate average = 0.009625
	minimum = 0 (at node 0)
	maximum = 0.154 (at node 4)
Injected flit rate average = 0.009875
	minimum = 0.004 (at node 9)
	maximum = 0.015 (at node 12)
Accepted flit rate average= 0.009625
	minimum = 0 (at node 0)
	maximum = 0.154 (at node 4)
Injected packet length average = 1
Accepted packet length average = 1
Total in-flight flits = 4 (0 measured)
latency change    = 0.0154568
throughput change = 0.0909091
Class 0:
Packet latency average = 19.9405
	minimum = 7
	maximum = 43
Network latency average = 19.9405
	minimum = 7
	maximum = 43
Slowest packet = 5944
Flit latency average = 19.9405
	minimum = 7
	maximum = 43
Slowest flit = 5944
Fragmentation average = 0
	minimum = 0
	maximum = 0
Injected packet rate average = 0.01025
	minimum = 0.002 (at node 7)
	maximum = 0.016 (at node 0)
Accepted packet rate average = 0.0105
	minimum = 0 (at node 0)
	maximum = 0.168 (at node 4)
Injected flit rate average = 0.01025
	minimum = 0.002 (at node 7)
	maximum = 0.016 (at node 0)
Accepted flit rate average= 0.0105
	minimum = 0 (at node 0)
	maximum = 0.168 (at node 4)
Injected packet length average = 1
Accepted packet length average = 1
Total in-flight flits = 2 (0 measured)
latency change    = 0.0182904
throughput change = 0.0833333
Warmed up ...Time used is 1500 cycles
Class 0:
Packet latency average = 20.8542
	minimum = 7
	maximum = 36
Network latency average = 20.8542
	minimum = 7
	maximum = 36
Slowest packet = 6016
Flit latency average = 20.8776
	minimum = 7
	maximum = 36
Slowest flit = 6016
Fragmentation average = 0
	minimum = 0
	maximum = 0
Injected packet rate average = 0.012625
	minimum = 0.004 (at node 0)
	maximum = 0.022 (at node 11)
Accepted packet rate average = 0.01225
	minimum = 0 (at node 0)
	maximum = 0.196 (at node 4)
Injected flit rate average = 0.012625
	minimum = 0.004 (at node 0)
	maximum = 0.022 (at node 11)
Accepted flit rate average= 0.01225
	minimum = 0 (at node 0)
	maximum = 0.196 (at node 4)
Injected packet length average = 1
Accepted packet length average = 1
Total in-flight flits = 5 (5 measured)
latency change    = 0.0438133
throughput change = 0.142857
Class 0:
Packet latency average = 20.593
	minimum = 7
	maximum = 38
Network latency average = 20.593
	minimum = 7
	maximum = 38
Slowest packet = 6131
Flit latency average = 20.6092
	minimum = 7
	maximum = 38
Slowest flit = 6131
Fragmentation average = 0
	minimum = 0
	maximum = 0
Injected packet rate average = 0.011125
	minimum = 0.005 (at node 1)
	maximum = 0.017 (at node 6)
Accepted packet rate average = 0.010875
	minimum = 0 (at node 0)
	maximum = 0.174 (at node 4)
Injected flit rate average = 0.011125
	minimum = 0.005 (at node 1)
	maximum = 0.017 (at node 6)
Accepted flit rate average= 0.010875
	minimum = 0 (at node 0)
	maximum = 0.174 (at node 4)
Injected packet length average = 1
Accepted packet length average = 1
Total in-flight flits = 6 (6 measured)
latency change    = 0.0126812
throughput change = 0.126437
Class 0:
Packet latency average = 20.5248
	minimum = 7
	maximum = 38
Network latency average = 20.5248
	minimum = 7
	maximum = 38
Slowest packet = 6131
Flit latency average = 20.5369
	minimum = 7
	maximum = 38
Slowest flit = 6131
Fragmentation average = 0
	minimum = 0
	maximum = 0
Injected packet rate average = 0.0102917
	minimum = 0.006 (at node 13)
	maximum = 0.0166667 (at node 11)
Accepted packet rate average = 0.0101667
	minimum = 0 (at node 0)
	maximum = 0.162667 (at node 4)
Injected flit rate average = 0.0102917
	minimum = 0.006 (at node 13)
	maximum = 0.0166667 (at node 11)
Accepted flit rate average= 0.0101667
	minimum = 0 (at node 0)
	maximum = 0.162667 (at node 4)
Injected packet length average = 1
Accepted packet length average = 1
Total in-flight flits = 5 (5 measured)
latency change    = 0.00332427
throughput change = 0.0696721
Class 0:
Packet latency average = 20.3569
	minimum = 7
	maximum = 38
Network latency average = 20.3569
	minimum = 7
	maximum = 38
Slowest packet = 6131
Flit latency average = 20.367
	minimum = 7
	maximum = 38
Slowest flit = 6131
Fragmentation average = 0
	minimum = 0
	maximum = 0
Injected packet rate average = 0.0101875
	minimum = 0.0065 (at node 13)
	maximum = 0.014 (at node 11)
Accepted packet rate average = 0.0102188
	minimum = 0 (at node 0)
	maximum = 0.1635 (at node 4)
Injected flit rate average = 0.0101875
	minimum = 0.0065 (at node 13)
	maximum = 0.014 (at node 11)
Accepted flit rate average= 0.0102188
	minimum = 0 (at node 0)
	maximum = 0.1635 (at node 4)
Injected packet length average = 1
Accepted packet length average = 1
Total in-flight flits = 1 (1 measured)
latency change    = 0.00824635
throughput change = 0.00509684
Class 0:
Packet latency average = 20.2155
	minimum = 7
	maximum = 38
Network latency average = 20.2155
	minimum = 7
	maximum = 38
Slowest packet = 6131
Flit latency average = 20.2241
	minimum = 7
	maximum = 38
Slowest flit = 6131
Fragmentation average = 0
	minimum = 0
	maximum = 0
Injected packet rate average = 0.010425
	minimum = 0.008 (at node 13)
	maximum = 0.0128 (at node 2)
Accepted packet rate average = 0.010375
	minimum = 0 (at node 0)
	maximum = 0.166 (at node 4)
Injected flit rate average = 0.010425
	minimum = 0.008 (at node 13)
	maximum = 0.0128 (at node 2)
Accepted flit rate average= 0.010375
	minimum = 0 (at node 0)
	maximum = 0.166 (at node 4)
Injected packet length average = 1
Accepted packet length average = 1
Total in-flight flits = 4 (4 measured)
latency change    = 0.00699596
throughput change = 0.0150602
Class 0:
Packet latency average = 20.196
	minimum = 7
	maximum = 46
Network latency average = 20.196
	minimum = 7
	maximum = 46
Slowest packet = 6448
Flit latency average = 20.2032
	minimum = 7
	maximum = 46
Slowest flit = 6448
Fragmentation average = 0
	minimum = 0
	maximum = 0
Injected packet rate average = 0.0103333
	minimum = 0.00766667 (at node 5)
	maximum = 0.013 (at node 7)
Accepted packet rate average = 0.0103542
	minimum = 0 (at node 0)
	maximum = 0.165667 (at node 4)
Injected flit rate average = 0.0103333
	minimum = 0.00766667 (at node 5)
	maximum = 0.013 (at node 7)
Accepted flit rate average= 0.0103542
	minimum = 0 (at node 0)
	maximum = 0.165667 (at node 4)
Injected packet length average = 1
Accepted packet length average = 1
Total in-flight flits = 1 (1 measured)
latency change    = 0.00096736
throughput change = 0.00201207
Draining all recorded packets ...
Draining remaining packets ...
Time taken is 4532 cycles
Class 0:
Packet latency average = 20.3295
	minimum = 7
	maximum = 36
Network latency average = 20.3295
	minimum = 7
	maximum = 36
Slowest packet = 6572
Flit latency average = 20.3295
	minimum = 7
	maximum = 36
Slowest flit = 6572
Fragmentation average = 0
	minimum = 0
	maximum = 0
Injected packet rate average = 0.01125
	minimum = 0.002 (at node 6)
	maximum = 0.02 (at node 2)
Accepted packet rate average = 0.011
	minimum = 0 (at node 0)
	maximum = 0.176 (at node 4)
Injected flit rate average = 0.01125
	minimum = 0.002 (at node 6)
	maximum = 0.02 (at node 2)
Accepted flit rate average= 0.011
	minimum = 0 (at node 0)
	maximum = 0.176 (at node 4)
Injected packet length average = 1
Accepted packet length average = 1
Total in-flight flits = 2 (0 measured)
latency change    = 1
throughput change = 1
Class 0:
Packet latency average = 20.0877
	minimum = 7
	maximum = 40
Network latency average = 20.0877
	minimum = 7
	maximum = 40
Slowest packet = 6626
Flit latency average = 20.0877
	minimum = 7
	maximum = 40
Slowest flit = 6626
Fragmentation average = 0
	minimum = 0
	maximum = 0
Injected packet rate average = 0.0108125
	minimum = 0.005 (at node 6)
	maximum = 0.016 (at node 2)
Accepted packet rate average = 0.0106875
	minimum = 0 (at node 0)
	maximum = 0.171 (at node 4)
Injected flit rate average = 0.0108125
	minimum = 0.005 (at node 6)
	maximum = 0.016 (at node 2)
Accepted flit rate average= 0.0106875
	minimum = 0 (at node 0)
	maximum = 0.171 (at node 4)
Injected packet length average = 1
Accepted packet length average = 1
Total in-flight flits = 2 (0 measured)
latency change    = 0.0120385
throughput change = 0.0292398
Class 0:
Packet latency average = 19.9437
	minimum = 7
	maximum = 36
Network latency average = 19.9437
	minimum = 7
	maximum = 36
Slowest packet = 6711
Flit latency average = 19.9437
	minimum = 7
	maximum = 36
Slowest flit = 6711
Fragmentation average = 0
	minimum = 0
	maximum = 0
Injected packet rate average = 0.009375
	minimum = 0.004 (at node 0)
	maximum = 0.014 (at node 12)
Accepted packet rate average = 0.008875
	minimum = 0 (at node 0)
	maximum = 0.142 (at node 4)
Injected flit rate average = 0.009375
	minimum = 0.004 (at node 0)
	maximum = 0.014 (at node 12)
Accepted flit rate average= 0.008875
	minimum = 0 (at node 0)
	maximum = 0.142 (at node 4)
Injected packet length average = 1
Accepted packet length average = 1
Total in-flight flits = 6 (0 measured)
latency change    = 0.00722321
throughput change = 0.204225
Warmed up ...Time used is 1500 cycles
Class 0:
Packet latency average = 19.9744
	minimum = 7
	maximum = 39
Network latency average = 19.9744
	minimum = 7
	maximum = 39
Slowest packet = 6769
Flit latency average = 20.4286
	minimum = 7
	maximum = 39
Slowest flit = 6769
Fragmentation average = 0
	minimum = 0
	maximum = 0
Injected packet rate average = 0.0105
	minimum = 0.002 (at node 13)
	maximum = 0.02 (at node 4)
Accepted packet rate average = 0.0105
	minimum = 0 (at node 0)
	maximum = 0.168 (at node 4)
Injected flit rate average = 0.0105
	minimum = 0.002 (at node 13)
	maximum = 0.02 (at node 4)
Accepted flit rate average= 0.0105
	minimum = 0 (at node 0)
	maximum = 0.168 (at node 4)
Injected packet length average = 1
Accepted packet length average = 1
Total in-flight flits = 6 (6 measured)
latency change    = 0.00153682
throughput change = 0.154762
Class 0:
Packet latency average = 20.6842
	minimum = 7
	maximum = 45
Network latency average = 20.6842
	minimum = 7
	maximum = 45
Slowest packet = 6876
Flit latency average = 20.8987
	minimum = 7
	maximum = 45
Slowest flit = 6876
Fragmentation average = 0
	minimum = 0
	maximum = 0
Injected packet rate average = 0.0096875
	minimum = 0.005 (at node 13)
	maximum = 0.014 (at node 4)
Accepted packet rate average = 0.009875
	minimum = 0 (at node 0)
	maximum = 0.158 (at node 4)
Injected flit rate average = 0.0096875
	minimum = 0.005 (at node 13)
	maximum = 0.014 (at node 4)
Accepted flit rate average= 0.009875
	minimum = 0 (at node 0)
	maximum = 0.158 (at node 4)
Injected packet length average = 1
Accepted packet length average = 1
Total in-flight flits = 3 (3 measured)
latency change    = 0.0343185
throughput change = 0.0632911
Class 0:
Packet latency average = 20.6958
	minimum = 7
	maximum = 48
Network latency average = 20.6958
	minimum = 7
	maximum = 48
Slowest packet = 6949
Flit latency average = 20.8333
	minimum = 7
	maximum = 48
Slowest flit = 6949
Fragmentation average = 0
	minimum = 0
	maximum = 0
Injected packet rate average = 0.0100833
	minimum = 0.00666667 (at node 2)
	maximum = 0.0146667 (at node 4)
Accepted packet rate average = 0.01025
	minimum = 0 (at node 0)
	maximum = 0.164 (at node 4)
Injected flit rate average = 0.0100833
	minimum = 0.00666667 (at node 2)
	maximum = 0.0146667 (at node 4)
Accepted flit rate average= 0.01025
	minimum = 0 (at node 0)
	maximum = 0.164 (at node 4)
Injected packet length average = 1
Accepted packet length average = 1
Total in-flight flits = 2 (2 measured)
latency change    = 0.000561601
throughput change = 0.0365854
Class 0:
Packet latency average = 20.6044
	minimum = 7
	maximum = 48
Network latency average = 20.6044
	minimum = 7
	maximum = 48
Slowest packet = 6949
Flit latency average = 20.7112
	minimum = 7
	maximum = 48
Slowest flit = 6949
Fragmentation average = 0
	minimum = 0
	maximum = 0
Injected packet rate average = 0.01
	minimum = 0.007 (at node 9)
	maximum = 0.0135 (at node 14)
Accepted packet rate average = 0.0100625
	minimum = 0 (at node 0)
	maximum = 0.161 (at node 4)
Injected flit rate average = 0.01
	minimum = 0.007 (at node 9)
	maximum = 0.0135 (at node 14)
Accepted flit rate average= 0.0100625
	minimum = 0 (at node 0)
	maximum = 0.161 (at node 4)
Injected packet length average = 1
Accepted packet length average = 1
Total in-flight flits = 4 (4 measured)
latency change    = 0.00443608
throughput change = 0.0186335
Class 0:
Packet latency average = 20.704
	minimum = 7
	maximum = 48
Network latency average = 20.704
	minimum = 7
	maximum = 48
Slowest packet = 6949
Flit latency average = 20.7868
	minimum = 7
	maximum = 48
Slowest flit = 6949
Fragmentation average = 0
	minimum = 0
	maximum = 0
Injected packet rate average = 0.01015
	minimum = 0.0072 (at node 12)
	maximum = 0.0148 (at node 14)
Accepted packet rate average = 0.0102
	minimum = 0 (at node 0)
	maximum = 0.1632 (at node 4)
Injected flit rate average = 0.01015
	minimum = 0.0072 (at node 12)
	maximum = 0.0148 (at node 14)
Accepted flit rate average= 0.0102
	minimum = 0 (at node 0)
	maximum = 0.1632 (at node 4)
Injected packet length average = 1
Accepted packet length average = 1
Total in-flight flits = 4 (4 measured)
latency change    = 0.00480824
throughput change = 0.0134804
Draining all recorded packets ...
Draining remaining packets ...
Time taken is 4020 cycles
Class 0:
Packet latency average = 21.3908
	minimum = 7
	maximum = 37
Network latency average = 21.3908
	minimum = 7
	maximum = 37
Slowest packet = 7180
Flit latency average = 21.3908
	minimum = 7
	maximum = 37
Slowest flit = 7180
Fragmentation average = 0
	minimum = 0
	maximum = 0
Injected packet rate average = 0.011625
	minimum = 0.004 (at node 2)
	maximum = 0.02 (at node 3)
Accepted packet rate average = 0.010875
	minimum = 0 (at node 0)
	maximum = 0.174 (at node 4)
Injected flit rate average = 0.011625
	minimum = 0.004 (at node 2)
	maximum = 0.02 (at node 3)
Accepted flit rate average= 0.010875
	minimum = 0 (at node 0)
	maximum = 0.174 (at node 4)
Injected packet length average = 1
Accepted packet length average = 1
Total in-flight flits = 6 (0 measured)
latency change    = 1
throughput change = 1
Class 0:
Packet latency average = 22.5026
	minimum = 7
	maximum = 50
Network latency average = 22.5026
	minimum = 7
	maximum = 50
Slowest packet = 7261
Flit latency average = 22.5026
	minimum = 7
	maximum = 50
Slowest flit = 7261
Fragmentation average = 0
	minimum = 0
	maximum = 0
Injected packet rate average = 0.0123125
	minimum = 0.004 (at node 12)
	maximum = 0.021 (at node 15)
Accepted packet rate average = 0.0119375
	minimum = 0 (at node 0)
	maximum = 0.191 (at node 4)
Injected flit rate average = 0.0123125
	minimum = 0.004 (at node 12)
	maximum = 0.021 (at node 15)
Accepted flit rate average= 0.0119375
	minimum = 0 (at node 0)
	maximum = 0.191 (at node 4)
Injected packet length average = 1
Accepted packet length average = 1
Total in-flight flits = 6 (0 measured)
latency change    = 0.0494082
throughput change = 0.0890052
Class 0:
Packet latency average = 21.8875
	minimum = 7
	maximum = 36
Network latency average = 21.8875
	minimum = 7
	maximum = 36
Slowest packet = 7370
Flit latency average = 21.8875
	minimum = 7
	maximum = 36
Slowest flit = 7370
Fragmentation average = 0
	minimum = 0
	maximum = 0
Injected packet rate average = 0.0095
	minimum = 0.002 (at node 8)
	maximum = 0.018 (at node 7)
Accepted packet rate average = 0.01
	minimum = 0 (at node 0)
	maximum = 0.16 (at node 4)
Injected flit rate average = 0.0095
	minimum = 0.002 (at node 8)
	maximum = 0.018 (at node 7)
Accepted flit rate average= 0.01
	minimum = 0 (at node 0)
	maximum = 0.16 (at node 4)
Injected packet length average = 1
Accepted packet length average = 1
Total in-flight flits = 2 (0 measured)
latency change    = 0.0281036
throughput change = 0.19375
Warmed up ...Time used is 1500 cycles
Class 0:
Packet latency average = 19.7463
	minimum = 7
	maximum = 35
Network latency average = 19.7463
	minimum = 7
	maximum = 35
Slowest packet = 7468
Flit latency average = 19.9565
	minimum = 7
	maximum = 35
Slowest flit = 7468
Fragmentation average = 0
	minimum = 0
	maximum = 0
Injected packet rate average = 0.008875
	minimum = 0.004 (at node 5)
	maximum = 0.014 (at node 4)
Accepted packet rate average = 0.008625
	minimum = 0 (at node 0)
	maximum = 0.138 (at node 4)
Injected flit rate average = 0.008875
	minimum = 0.004 (at node 5)
	maximum = 0.014 (at node 4)
Accepted flit rate average= 0.008625
	minimum = 0 (at node 0)
[...]
Total in-flight flits = 3 (3 measured)
latency change    = 0.00881148
throughput change = 0.00713558
Draining all recorded packets ...
Draining remaining packets ...
Time taken is 3538 cycles
Class 0:
Packet latency average = 19.6212
	minimum = 7
	maximum = 31
Network latency average = 19.6212
	minimum = 7
	maximum = 31
Slowest packet = 30632
Flit latency average = 19.6212
	minimum = 7
	maximum = 31
Slowest flit = 30632
Fragmentation average = 0
	minimum = 0
	maximum = 0
Injected packet rate average = 0.0085
	minimum = 0 (at node 15)
	maximum = 0.014 (at node 8)
Accepted packet rate average = 0.00825
	minimum = 0 (at node 0)
	maximum = 0.132 (at node 4)
Injected flit rate average = 0.0085
	minimum = 0 (at node 15)
	maximum = 0.014 (at node 8)
Accepted flit rate average= 0.00825
	minimum = 0 (at node 0)
	maximum = 0.132 (at node 4)
Injected packet length average = 1
Accepted packet length average = 1
Total in-flight flits = 2 (0 measured)
latency change    = 1
throughput change = 1
Class 0:
Packet latency average = 19.9621
	minimum = 7
	maximum = 32
Network latency average = 19.9621
	minimum = 7
	maximum = 32
Slowest packet = 30702
Flit latency average = 19.9621
	minimum = 7
	maximum = 32
Slowest flit = 30702
Fragmentation average = 0
	minimum = 0
	maximum = 0
Injected packet rate average = 0.0085
	minimum = 0.002 (at node 15)
	maximum = 0.013 (at node 7)
Accepted packet rate average = 0.00825
	minimum = 0 (at node 0)
	maximum = 0.132 (at node 4)
Injected flit rate average = 0.0085
	minimum = 0.002 (at node 15)
	maximum = 0.013 (at node 7)
Accepted flit rate average= 0.00825
	minimum = 0 (at node 0)
	maximum = 0.132 (at node 4)
Injected packet length average = 1
Accepted packet length average = 1
Total in-flight flits = 4 (0 measured)
latency change    = 0.0170778
throughput change = 0
Class 0:
Packet latency average = 18.5692
	minimum = 7
	maximum = 32
Network latency average = 18.5692
	minimum = 7
	maximum = 32
Slowest packet = 30773
Flit latency average = 18.5692
	minimum = 7
	maximum = 32
Slowest flit = 30773
Fragmentation average = 0
	minimum = 0
	maximum = 0
Injected packet rate average = 0.007875
	minimum = 0.002 (at node 3)
	maximum = 0.018 (at node 4)
Accepted packet rate average = 0.008125
	minimum = 0 (at node 0)
	maximum = 0.13 (at node 4)
Injected flit rate average = 0.007875
	minimum = 0.002 (at node 3)
	maximum = 0.018 (at node 4)
Accepted flit rate average= 0.008125
	minimum = 0 (at node 0)
	maximum = 0.13 (at node 4)
Injected packet length average = 1
Accepted packet length average = 1
Total in-flight flits = 2 (0 measured)
latency change    = 0.0750107
throughput change = 0.0153846
Warmed up ...Time used is 1500 cycles
Class 0:
Packet latency average = 20.4805
	minimum = 7
	maximum = 36
Network latency average = 20.4805
	minimum = 7
	maximum = 36
Slowest packet = 30854
Flit latency average = 20.2658
	minimum = 7
	maximum = 36
Slowest flit = 30854
Fragmentation average = 0
	minimum = 0
	maximum = 0
Injected packet rate average = 0.01
	minimum = 0.002 (at node 9)
	maximum = 0.026 (at node 14)
Accepted packet rate average = 0.009875
	minimum = 0 (at node 0)
	maximum = 0.158 (at node 4)
Injected flit rate average = 0.01
	minimum = 0.002 (at node 9)
	maximum = 0.026 (at node 14)
Accepted flit rate average= 0.009875
	minimum = 0 (at node 0)
	maximum = 0.158 (at node 4)
Injected packet length average = 1
Accepted packet length average = 1
Total in-flight flits = 3 (3 measured)
latency change    = 0.0933223
throughput change = 0.177215
Class 0:
Packet latency average = 20.9211
	minimum = 7
	maximum = 38
Network latency average = 20.9211
	minimum = 7
	maximum = 38
Slowest packet = 30937
Flit latency average = 20.8052
	minimum = 7
	maximum = 38
Slowest flit = 30937
Fragmentation average = 0
	minimum = 0
	maximum = 0
Injected packet rate average = 0.009625
	minimum = 0.005 (at node 5)
	maximum = 0.02 (at node 14)
Accepted packet rate average = 0.009625
	minimum = 0 (at node 0)
	maximum = 0.154 (at node 4)
Injected flit rate average = 0.009625
	minimum = 0.005 (at node 5)
	maximum = 0.02 (at node 14)
Accepted flit rate average= 0.009625
	minimum = 0 (at node 0)
	maximum = 0.154 (at node 4)
Injected packet length average = 1
Accepted packet length average = 1
Total in-flight flits = 2 (2 measured)
latency change    = 0.0210569
throughput change = 0.025974
Class 0:
Packet latency average = 20.5088
	minimum = 7
	maximum = 38
Network latency average = 20.5088
	minimum = 7
	maximum = 38
Slowest packet = 30937
Flit latency average = 20.4342
	minimum = 7
	maximum = 38
Slowest flit = 30937
Fragmentation average = 0
	minimum = 0
	maximum = 0
Injected packet rate average = 0.0095
	minimum = 0.006 (at node 3)
	maximum = 0.0153333 (at node 14)
Accepted packet rate average = 0.0095
	minimum = 0 (at node 0)
	maximum = 0.152 (at node 4)
Injected flit rate average = 0.0095
	minimum = 0.006 (at node 3)
	maximum = 0.0153333 (at node 14)
Accepted flit rate average= 0.0095
	minimum = 0 (at node 0)
	maximum = 0.152 (at node 4)
Injected packet length average = 1
Accepted packet length average = 1
Total in-flight flits = 2 (2 measured)
latency change    = 0.0200988
throughput change = 0.0131579
Class 0:
Packet latency average = 20.3223
	minimum = 7
	maximum = 38
Network latency average = 20.3223
	minimum = 7
	maximum = 38
Slowest packet = 30937
Flit latency average = 20.2673
	minimum = 7
	maximum = 38
Slowest flit = 30937
Fragmentation average = 0
	minimum = 0
	maximum = 0
Injected packet rate average = 0.00953125
	minimum = 0.006 (at node 3)
	maximum = 0.0145 (at node 2)
Accepted packet rate average = 0.00946875
	minimum = 0 (at node 0)
	maximum = 0.1515 (at node 4)
Injected flit rate average = 0.00953125
	minimum = 0.006 (at node 3)
	maximum = 0.0145 (at node 2)
Accepted flit rate average= 0.00946875
	minimum = 0 (at node 0)
	maximum = 0.1515 (at node 4)
Injected packet length average = 1
Accepted packet length average = 1
Total in-flight flits = 4 (4 measured)
latency change    = 0.00918158
throughput change = 0.00330033
Draining all recorded packets ...
Draining remaining packets ...
Time taken is 3552 cycles
Class 0:
Packet latency average = 20.7333
	minimum = 7
	maximum = 38
Network latency average = 20.7333
	minimum = 7
	maximum = 38
Slowest packet = 31187
Flit latency average = 20.7333
	minimum = 7
	maximum = 38
Slowest flit = 31187
Fragmentation average = 0
	minimum = 0
	maximum = 0
Injected packet rate average = 0.0095
	minimum = 0.004 (at node 0)
	maximum = 0.018 (at node 8)
Accepted packet rate average = 0.009375
	minimum = 0 (at node 0)
	maximum = 0.15 (at node 4)
Injected flit rate average = 0.0095
	minimum = 0.004 (at node 0)
	maximum = 0.018 (at node 8)
Accepted flit rate average= 0.009375
	minimum = 0 (at node 0)
	maximum = 0.15 (at node 4)
Injected packet length average = 1
Accepted packet length average = 1
Total in-flight flits = 1 (0 measured)
latency change    = 1
throughput change = 1
Class 0:
Packet latency average = 19.8272
	minimum = 7
	maximum = 38
Network latency average = 19.8272
	minimum = 7
	maximum = 38
Slowest packet = 31187
Flit latency average = 19.8272
	minimum = 7
	maximum = 38
Slowest flit = 31187
Fragmentation average = 0
	minimum = 0
	maximum = 0
Injected packet rate average = 0.0101875
	minimum = 0.006 (at node 5)
	maximum = 0.016 (at node 6)
Accepted packet rate average = 0.010125
	minimum = 0 (at node 0)
	maximum = 0.162 (at node 4)
Injected flit rate average = 0.0101875
	minimum = 0.006 (at node 5)
	maximum = 0.016 (at node 6)
Accepted flit rate average= 0.010125
	minimum = 0 (at node 0)
	maximum = 0.162 (at node 4)
Injected packet length average = 1
Accepted packet length average = 1
Total in-flight flits = 1 (0 measured)
latency change    = 0.0457036
throughput change = 0.0740741
Class 0:
Packet latency average = 19.7065
	minimum = 7
	maximum = 34
Network latency average = 19.7065
	minimum = 7
	maximum = 34
Slowest packet = 31307
Flit latency average = 19.7065
	minimum = 7
	maximum = 34
Slowest flit = 31307
Fragmentation average = 0
	minimum = 0
	maximum = 0
Injected packet rate average = 0.01175
	minimum = 0.004 (at node 2)
	maximum = 0.022 (at node 10)
Accepted packet rate average = 0.0115
	minimum = 0 (at node 0)
	maximum = 0.184 (at node 4)
Injected flit rate average = 0.01175
	minimum = 0.004 (at node 2)
	maximum = 0.022 (at node 10)
Accepted flit rate average= 0.0115
	minimum = 0 (at node 0)
	maximum = 0.184 (at node 4)
Injected packet length average = 1
Accepted packet length average = 1
Total in-flight flits = 3 (0 measured)
latency change    = 0.00612177
throughput change = 0.119565
Warmed up ...Time used is 1500 cycles
Class 0:
Packet latency average = 19.3088
	minimum = 7
	maximum = 32
Network latency average = 19.3088
	minimum = 7
	maximum = 32
Slowest packet = 31426
Flit latency average = 19.4789
	minimum = 7
	maximum = 32
Slowest flit = 31426
Fragmentation average = 0
	minimum = 0
	maximum = 0
Injected packet rate average = 0.0085
	minimum = 0.002 (at node 14)
	maximum = 0.016 (at node 3)
Accepted packet rate average = 0.008875
	minimum = 0 (at node 0)
	maximum = 0.142 (at node 4)
Injected flit rate average = 0.0085
	minimum = 0.002 (at node 14)
	maximum = 0.016 (at node 3)
Accepted flit rate average= 0.008875
	minimum = 0 (at node 0)
	maximum = 0.142 (at node 4)
Injected packet length average = 1
Accepted packet length average = 1
Total in-flight flits = 0 (0 measured)
latency change    = 0.0205967
throughput change = 0.295775
Class 0:
Packet latency average = 20.4967
	minimum = 7
	maximum = 34
Network latency average = 20.4967
	minimum = 7
	maximum = 34
Slowest packet = 31492
Flit latency average = 20.5513
	minimum = 7
	maximum = 34
Slowest flit = 31492
Fragmentation average = 0
	minimum = 0
	maximum = 0
Injected packet rate average = 0.009625
	minimum = 0.004 (at node 12)
	maximum = 0.023 (at node 3)
Accepted packet rate average = 0.00975
	minimum = 0 (at node 0)
	maximum = 0.156 (at node 4)
Injected flit rate average = 0.009625
	minimum = 0.004 (at node 12)
	maximum = 0.023 (at node 3)
Accepted flit rate average= 0.00975
	minimum = 0 (at node 0)
	maximum = 0.156 (at node 4)
Injected packet length average = 1
Accepted packet length average = 1
Total in-flight flits = 1 (1 measured)
latency change    = 0.057956
throughput change = 0.0897436
Class 0:
Packet latency average = 20.681
	minimum = 7
	maximum = 54
Network latency average = 20.681
	minimum = 7
	maximum = 54
Slowest packet = 31549
Flit latency average = 20.7149
	minimum = 7
	maximum = 54
Slowest flit = 31549
Fragmentation average = 0
	minimum = 0
	maximum = 0
Injected packet rate average = 0.00983333
	minimum = 0.006 (at node 9)
	maximum = 0.0186667 (at node 3)
Accepted packet rate average = 0.00979167
	minimum = 0 (at node 0)
	maximum = 0.156667 (at node 4)
Injected flit rate average = 0.00983333
	minimum = 0.006 (at node 9)
	maximum = 0.0186667 (at node 3)
Accepted flit rate average= 0.00979167
	minimum = 0 (at node 0)
	maximum = 0.156667 (at node 4)
Injected packet length average = 1
Accepted packet length average = 1
Total in-flight flits = 4 (4 measured)
latency change    = 0.00891167
throughput change = 0.00425532
Class 0:
Packet latency average = 20.737
	minimum = 7
	maximum = 54
Network latency average = 20.737
	minimum = 7
	maximum = 54
Slowest packet = 31549
Flit latency average = 20.7621
	minimum = 7
	maximum = 54
Slowest flit = 31549
Fragmentation average = 0
	minimum = 0
	maximum = 0
Injected packet rate average = 0.00965625
	minimum = 0.0055 (at node 12)
	maximum = 0.0175 (at node 3)
Accepted packet rate average = 0.00971875
	minimum = 0 (at node 0)
	maximum = 0.1555 (at node 4)
Injected flit rate average = 0.00965625
	minimum = 0.0055 (at node 12)
	maximum = 0.0175 (at node 3)
Accepted flit rate average= 0.00971875
	minimum = 0 (at node 0)
	maximum = 0.1555 (at node 4)
Injected packet length average = 1
Accepted packet length average = 1
Total in-flight flits = 1 (1 measured)
latency change    = 0.00269945
throughput change = 0.00750268
Class 0:
Packet latency average = 20.3023
	minimum = 7
	maximum = 54
Network latency average = 20.3023
	minimum = 7
	maximum = 54
Slowest packet = 31549
Flit latency average = 20.3256
	minimum = 7
	maximum = 54
Slowest flit = 31549
Fragmentation average = 0
	minimum = 0
	maximum = 0
Injected packet rate average = 0.0097
	minimum = 0.0064 (at node 12)
	maximum = 0.0156 (at node 3)
Accepted packet rate average = 0.00975
	minimum = 0 (at node 0)
	maximum = 0.156 (at node 4)
Injected flit rate average = 0.0097
	minimum = 0.0064 (at node 12)
	maximum = 0.0156 (at node 3)
Accepted flit rate average= 0.00975
	minimum = 0 (at node 0)
	maximum = 0.156 (at node 4)
Injected packet length average = 1
Accepted packet length average = 1
Total in-flight flits = 1 (1 measured)
latency change    = 0.0214107
throughput change = 0.00320513
Draining all recorded packets ...
Draining remaining packets ...
Time taken is 4008 cycles
Class 0:
Packet latency average = 18.8615
	minimum = 7
	maximum = 32
Network latency average = 18.8615
	minimum = 7
	maximum = 32
Slowest packet = 31832
Flit latency average = 18.8615
	minimum = 7
	maximum = 32
Slowest flit = 31832
Fragmentation average = 0
	minimum = 0
	maximum = 0
Injected packet rate average = 0.00875
	minimum = 0.002 (at node 7)
	maximum = 0.016 (at node 5)
Accepted packet rate average = 0.008125
	minimum = 0 (at node 0)
	maximum = 0.13 (at node 4)
Injected flit rate average = 0.00875
	minimum = 0.002 (at node 7)
	maximum = 0.016 (at node 5)
Accepted flit rate average= 0.008125
	minimum = 0 (at node 0)
	maximum = 0.13 (at node 4)
Injected packet length average = 1
Accepted packet length average = 1
Total in-flight flits = 5 (0 measured)
latency change    = 1
throughput change = 1
Class 0:
Packet latency average = 19.6593
	minimum = 7
	maximum = 33
Network latency average = 19.6593
	minimum = 7
	maximum = 33
Slowest packet = 31844
Flit latency average = 19.6593
	minimum = 7
	maximum = 33
Slowest flit = 31844
Fragmentation average = 0
	minimum = 0
	maximum = 0
Injected packet rate average = 0.0088125
	minimum = 0.002 (at node 1)
	maximum = 0.014 (at node 5)
Accepted packet rate average = 0.0084375
	minimum = 0 (at node 0)
	maximum = 0.135 (at node 4)
Injected flit rate average = 0.0088125
	minimum = 0.002 (at node 1)
	maximum = 0.014 (at node 5)
Accepted flit rate average= 0.0084375
	minimum = 0 (at node 0)
	maximum = 0.135 (at node 4)
Injected packet length average = 1
Accepted packet length average = 1
Total in-flight flits = 6 (0 measured)
latency change    = 0.0405774
throughput change = 0.037037
Class 0:
Packet latency average = 21.1233
	minimum = 7
	maximum = 34
Network latency average = 21.1233
	minimum = 7
	maximum = 34
Slowest packet = 31942
Flit latency average = 21.1233
	minimum = 7
	maximum = 34
Slowest flit = 31942
Fragmentation average = 0
	minimum = 0
	maximum = 0
Injected packet rate average = 0.008875
	minimum = 0.002 (at node 0)
	maximum = 0.016 (at node 1)
Accepted packet rate average = 0.009125
	minimum = 0 (at node 0)
	maximum = 0.146 (at node 4)
Injected flit rate average = 0.008875
	minimum = 0.002 (at node 0)
	maximum = 0.016 (at node 1)
Accepted flit rate average= 0.009125
	minimum = 0 (at node 0)
	maximum = 0.146 (at node 4)
Injected packet length average = 1
Accepted packet length average = 1
Total in-flight flits = 4 (0 measured)
latency change    = 0.0693087
throughput change = 0.0753425
Warmed up ...Time used is 1500 cycles
Class 0:
Packet latency average = 19.411
	minimum = 7
	maximum = 32
Network latency average = 19.411
	minimum = 7
	maximum = 32
Slowest packet = 32003
Flit latency average = 19.5974
	minimum = 7
	maximum = 32
Slowest flit = 31985
Fragmentation average = 0
	minimum = 0
	maximum = 0
Injected packet rate average = 0.009375
	minimum = 0.002 (at node 11)
	maximum = 0.016 (at node 10)
Accepted packet rate average = 0.009625
	minimum = 0 (at node 0)
	maximum = 0.154 (at node 4)
Injected flit rate average = 0.009375
	minimum = 0.002 (at node 11)
	maximum = 0.016 (at node 10)
Accepted flit rate average= 0.009625
	minimum = 0 (at node 0)
	maximum = 0.154 (at node 4)
Injected packet length average = 1
Accepted packet length average = 1
Total in-flight flits = 2 (2 measured)
latency change    = 0.0882145
throughput change = 0.0519481
Class 0:
Packet latency average = 20.0333
	minimum = 7
	maximum = 40
Network latency average = 20.0333
	minimum = 7
	maximum = 40
Slowest packet = 32111
Flit latency average = 20.1104
	minimum = 7
	maximum = 40
Slowest flit = 32111
Fragmentation average = 0
	minimum = 0
	maximum = 0
Injected packet rate average = 0.0095625
	minimum = 0.005 (at node 13)
	maximum = 0.014 (at node 10)
Accepted packet rate average = 0.009625
	minimum = 0 (at node 0)
	maximum = 0.154 (at node 4)
Injected flit rate average = 0.0095625
	minimum = 0.005 (at node 13)
	maximum = 0.014 (at node 10)
Accepted flit rate average= 0.009625
	minimum = 0 (at node 0)
	maximum = 0.154 (at node 4)
Injected packet length average = 1
Accepted packet length average = 1
Total in-flight flits = 3 (3 measured)
latency change    = 0.0310669
throughput change = 0
Class 0:
Packet latency average = 20.3467
	minimum = 7
	maximum = 40
Network latency average = 20.3467
	minimum = 7
	maximum = 40
Slowest packet = 32111
Flit latency average = 20.393
	minimum = 7
	maximum = 40
Slowest flit = 32111
Fragmentation average = 0
	minimum = 0
	maximum = 0
Injected packet rate average = 0.0095
	minimum = 0.00666667 (at node 1)
	maximum = 0.0133333 (at node 10)
Accepted packet rate average = 0.00954167
	minimum = 0 (at node 0)
	maximum = 0.152667 (at node 4)
Injected flit rate average = 0.0095
	minimum = 0.00666667 (at node 1)
	maximum = 0.0133333 (at node 10)
Accepted flit rate average= 0.00954167
	minimum = 0 (at node 0)
	maximum = 0.152667 (at node 4)
Injected packet length average = 1
Accepted packet length average = 1
Total in-flight flits = 3 (3 measured)
latency change    = 0.0153997
throughput change = 0.00873362
Class 0:
Packet latency average = 20.3473
	minimum = 7
	maximum = 40
Network latency average = 20.3473
	minimum = 7
	maximum = 40
Slowest packet = 32111
Flit latency average = 20.381
	minimum = 7
	maximum = 40
Slowest flit = 32111
Fragmentation average = 0
	minimum = 0
	maximum = 0
Injected packet rate average = 0.0098125
	minimum = 0.0065 (at node 1)
	maximum = 0.0135 (at node 10)
Accepted packet rate average = 0.00984375
	minimum = 0 (at node 0)
	maximum = 0.1575 (at node 4)
Injected flit rate average = 0.0098125
	minimum = 0.0065 (at node 1)
	maximum = 0.0135 (at node 10)
Accepted flit rate average= 0.00984375
	minimum = 0 (at node 0)
	maximum = 0.1575 (at node 4)
Injected packet length average = 1
Accepted packet length average = 1
Total in-flight flits = 3 (3 measured)
latency change    = 2.94985e-05
throughput change = 0.0306878
Draining all recorded packets ...
Draining remaining packets ...
Time taken is 3542 cycles
====== Overall Traffic Statistics ======
====== Traffic class 0 ======
Packet latency average = 20.2047 (50 samples)
	minimum = 7 (50 samples)
	maximum = 45.82 (50 samples)
Network latency average = 20.2047 (50 samples)
	minimum = 7 (50 samples)
	maximum = 45.82 (50 samples)
Flit latency average = 20.2253 (50 samples)
	minimum = 7 (50 samples)
	maximum = 45.86 (50 samples)
Fragmentation average = 0 (50 samples)
	minimum = 0 (50 samples)
	maximum = 0 (50 samples)
Injected packet rate average = 0.00999068 (50 samples)
	minimum = 0.00662743 (50 samples)
	maximum = 0.0138989 (50 samples)
Accepted packet rate average = 0.0100003 (50 samples)
	minimum = 0 (50 samples)
	maximum = 0.160005 (50 samples)
Injected flit rate average = 0.00999068 (50 samples)
	minimum = 0.00662743 (50 samples)
	maximum = 0.0138989 (50 samples)
Accepted flit rate average = 0.0100003 (50 samples)
	minimum = 0 (50 samples)
	maximum = 0.160005 (50 samples)
Injected packet size average = 1 (50 samples)
Accepted packet size average = 1 (50 samples)
Hops average = 3.48965 (50 samples)
Total run time 1.06984
