BEGIN Configuration File: /tmp/tmp8o1hs5so.cfg
topology = mesh;
k = 4;
n = 2;
routing_function = gnn_port_score_route_4x4;
num_vcs = 4;
vc_buf_size = 4;
wait_for_tail_credit = 1;
vc_allocator = islip;
sw_allocator = islip;
alloc_iters = 1;
credit_delay = 2;
routing_delay = 1;
vc_alloc_delay = 1;
sw_alloc_delay = 1;
input_speedup = 2;
output_speedup = 1;
internal_speedup = 1.0;
traffic = hotspot;
packet_size = 1;
sim_type = latency;
injection_rate = 0.05;
warmup_periods = 3;
sample_period = 500;
sim_count = 50;
seed = 2;
link_failures = 1;
fail_seed = 303;

END Configuration File: /tmp/tmp8o1hs5so.cfg
failure at node 9, channel 2 (1/1)
Class 0:
Packet latency average = 73.934
	minimum = 7
	maximum = 423
Network latency average = 68.4198
	minimum = 7
	maximum = 423
Slowest packet = 51
Flit latency average = 68.4198
	minimum = 7
	maximum = 423
Slowest flit = 51
Fragmentation average = 0
	minimum = 0
	maximum = 0
Injected packet rate average = 0.03575
	minimum = 0.018 (at node 4)
	maximum = 0.064 (at node 10)
Accepted packet rate average = 0.0265
	minimum = 0 (at node 0)
	maximum = 0.424 (at node 15)
Injected flit rate average = 0.03575
	minimum = 0.018 (at node 4)
	maximum = 0.064 (at node 10)
Accepted flit rate average= 0.0265
	minimum = 0 (at node 0)
	maximum = 0.424 (at node 15)
Injected packet length average = 1
Accepted packet length average = 1
Total in-flight flits = 85 (0 measured)
latency change    = 1
throughput change = 1
Class 0:
Packet latency average = 122.318
	minimum = 7
	maximum = 849
Network latency average = 93.5731
	minimum = 7
	maximum = 849
Slowest packet = 108
Flit latency average = 93.5731
	minimum = 7
	maximum = 849
Slowest flit = 108
Fragmentation average = 0
	minimum = 0
	maximum = 0
Injected packet rate average = 0.0315
	minimum = 0.009 (at node 4)
	maximum = 0.057 (at node 10)
Accepted packet rate average = 0.0269375
	minimum = 0 (at node 0)
	maximum = 0.431 (at node 15)
Injected flit rate average = 0.0315
	minimum = 0.009 (at node 4)
	maximum = 0.057 (at node 10)
Accepted flit rate average= 0.0269375
	minimum = 0 (at node 0)
	maximum = 0.431 (at node 15)
Injected packet length average = 1
Accepted packet length average = 1
Total in-flight flits = 83 (0 measured)
latency change    = 0.395559
throughput change = 0.0162413
Class 0:
Packet latency average = 290.093
	minimum = 7
	maximum = 1389
Network latency average = 160.847
	minimum = 7
	maximum = 1389
Slowest packet = 73
Flit latency average = 160.847
	minimum = 7
	maximum = 1389
Slowest flit = 73
Fragmentation average = 0
	minimum = 0
	maximum = 0
Injected packet rate average = 0.026375
	minimum = 0 (at node 0)
	maximum = 0.06 (at node 7)
Accepted packet rate average = 0.027
	minimum = 0 (at node 0)
	maximum = 0.432 (at node 15)
Injected flit rate average = 0.026375
	minimum = 0 (at node 0)
	maximum = 0.06 (at node 7)
Accepted flit rate average= 0.027
	minimum = 0 (at node 0)
	maximum = 0.432 (at node 15)
Injected packet length average = 1
Accepted packet length average = 1
Total in-flight flits = 78 (0 measured)
latency change    = 0.578349
throughput change = 0.00231481
Warmed up ...Time used is 1500 cycles
Class 0:
Packet latency average = 157.139
	minimum = 7
	maximum = 1628
Network latency average = 56.506
	minimum = 7
	maximum = 390
Slowest packet = 728
Flit latency average = 149.445
	minimum = 7
	maximum = 1867
Slowest flit = 76
Fragmentation average = 0
	minimum = 0
	maximum = 0
Injected packet rate average = 0.027875
	minimum = 0 (at node 0)
	maximum = 0.06 (at node 10)
Accepted packet rate average = 0.02725
	minimum = 0 (at node 0)
	maximum = 0.436 (at node 15)
Injected flit rate average = 0.027875
	minimum = 0 (at node 0)
	maximum = 0.06 (at node 10)
Accepted flit rate average= 0.02725
	minimum = 0 (at node 0)
	maximum = 0.436 (at node 15)
Injected packet length average = 1
Accepted packet length average = 1
Total in-flight flits = 83 (57 measured)
latency change    = 0.846094
throughput change = 0.00917431
Average latency for class 0 exceeded 500 cycles. Aborting simulation.
Too many sample periods needed to converge
Simulation unstable, ending ...
Total run time 0.0310829
