BEGIN Configuration File: /tmp/tmpovyymse4.cfg
topology = mesh;
k = 4;
n = 2;
routing_function = planar_adapt;
num_vcs = 4;
vc_buf_size = 4;
wait_for_tail_credit = 1;
vc_allocator = islip;
sw_allocator = islip;
alloc_iters = 1;
credit_delay = 2;
routing_delay = 1;
vc_alloc_delay = 1;
sw_alloc_delay = 1;
input_speedup = 2;
output_speedup = 1;
internal_speedup = 1.0;
traffic = uniform;
packet_size = 1;
sim_type = latency;
injection_rate = 0.05;
warmup_periods = 3;
sample_period = 500;
sim_count = 50;
seed = 2;
link_failures = 4;
fail_seed = 202;

END Configuration File: /tmp/tmpovyymse4.cfg
failure at node 4, channel 2 (1/4)
failure at node 13, channel 0 (2/4)
failure at node 6, channel 1 (3/4)
failure at node 11, channel 3 (4/4)
Class 0:
Packet latency average = 24.4293
	minimum = 7
	maximum = 80
Network latency average = 24.4293
	minimum = 7
	maximum = 80
Slowest packet = 211
Flit latency average = 24.4293
	minimum = 7
	maximum = 80
Slowest flit = 211
Fragmentation average = 0
	minimum = 0
	maximum = 0
Injected packet rate average = 0.048875
	minimum = 0.03 (at node 5)
	maximum = 0.068 (at node 10)
Accepted packet rate average = 0.046875
	minimum = 0.026 (at node 1)
	maximum = 0.064 (at node 9)
Injected flit rate average = 0.048875
	minimum = 0.03 (at node 5)
	maximum = 0.068 (at node 10)
Accepted flit rate average= 0.046875
	minimum = 0.026 (at node 1)
	maximum = 0.064 (at node 9)
Injected packet length average = 1
Accepted packet length average = 1
Total in-flight flits = 16 (0 measured)
latency change    = 1
throughput change = 1
Class 0:
Packet latency average = 24.346
	minimum = 7
	maximum = 91
Network latency average = 24.346
	minimum = 7
	maximum = 91
Slowest packet = 335
Flit latency average = 24.346
	minimum = 7
	maximum = 91
Slowest flit = 335
Fragmentation average = 0
	minimum = 0
	maximum = 0
Injected packet rate average = 0.0496875
	minimum = 0.035 (at node 8)
	maximum = 0.064 (at node 10)
Accepted packet rate average = 0.047875
	minimum = 0.035 (at node 2)
	maximum = 0.06 (at node 13)
Injected flit rate average = 0.0496875
	minimum = 0.035 (at node 8)
	maximum = 0.064 (at node 10)
Accepted flit rate average= 0.047875
	minimum = 0.035 (at node 2)
	maximum = 0.06 (at node 13)
Injected packet length average = 1
Accepted packet length average = 1
Total in-flight flits = 30 (0 measured)
latency change    = 0.00342481
throughput change = 0.0208877
Class 0:
Packet latency average = 24.12
	minimum = 7
	maximum = 87
Network latency average = 24.1173
	minimum = 7
	maximum = 87
Slowest packet = 804
Flit latency average = 24.1173
	minimum = 7
	maximum = 87
Slowest flit = 804
Fragmentation average = 0
	minimum = 0
	maximum = 0
Injected packet rate average = 0.044875
	minimum = 0.026 (at node 1)
	maximum = 0.06 (at node 10)
Accepted packet rate average = 0.046875
	minimum = 0.03 (at node 7)
	maximum = 0.066 (at node 0)
Injected flit rate average = 0.044875
	minimum = 0.026 (at node 1)
	maximum = 0.06 (at node 10)
Accepted flit rate average= 0.046875
	minimum = 0.03 (at node 7)
	maximum = 0.066 (at node 0)
Injected packet length average = 1
Accepted packet length average = 1
Total in-flight flits = 13 (0 measured)
latency change    = 0.00936787
throughput change = 0.0213333
Warmed up ...Time used is 1500 cycles
Class 0:
Packet latency average = 24.9567
	minimum = 7
	maximum = 100
Network latency average = 24.9567
	minimum = 7
	maximum = 100
Slowest packet = 1213
Flit latency average = 24.9138
	minimum = 7
	maximum = 100
Slowest flit = 1213
Fragmentation average = 0
	minimum = 0
	maximum = 0
Injected packet rate average = 0.05375
	minimum = 0.038 (at node 15)
	maximum = 0.08 (at node 10)
Accepted packet rate average = 0.053625
	minimum = 0.034 (at node 0)
	maximum = 0.068 (at node 14)
Injected flit rate average = 0.05375
	minimum = 0.038 (at node 15)
	maximum = 0.08 (at node 10)
Accepted flit rate average= 0.053625
	minimum = 0.034 (at node 0)
	maximum = 0.068 (at node 14)
Injected packet length average = 1
Accepted packet length average = 1
Total in-flight flits = 14 (14 measured)
latency change    = 0.0335273
throughput change = 0.125874
Class 0:
Packet latency average = 23.9083
	minimum = 7
	maximum = 100
Network latency average = 23.9083
	minimum = 7
	maximum = 100
Slowest packet = 1213
Flit latency average = 23.9023
	minimum = 7
	maximum = 100
Slowest flit = 1213
Fragmentation average = 0
	minimum = 0
	maximum = 0
Injected packet rate average = 0.050125
	minimum = 0.032 (at node 15)
	maximum = 0.07 (at node 10)
Accepted packet rate average = 0.049875
	minimum = 0.037 (at node 3)
	maximum = 0.059 (at node 8)
Injected flit rate average = 0.050125
	minimum = 0.032 (at node 15)
	maximum = 0.07 (at node 10)
Accepted flit rate average= 0.049875
	minimum = 0.037 (at node 3)
	maximum = 0.059 (at node 8)
Injected packet length average = 1
Accepted packet length average = 1
Total in-flight flits = 17 (17 measured)
latency change    = 0.043853
throughput change = 0.075188
Class 0:
Packet latency average = 23.6416
	minimum = 7
	maximum = 100
Network latency average = 23.6416
	minimum = 7
	maximum = 100
Slowest packet = 1213
Flit latency average = 23.6404
	minimum = 7
	maximum = 100
Slowest flit = 1213
Fragmentation average = 0
	minimum = 0
	maximum = 0
Injected packet rate average = 0.049625
	minimum = 0.0393333 (at node 15)
	maximum = 0.066 (at node 10)
Accepted packet rate average = 0.04925
	minimum = 0.04 (at node 12)
	maximum = 0.0573333 (at node 6)
Injected flit rate average = 0.049625
	minimum = 0.0393333 (at node 15)
	maximum = 0.066 (at node 10)
Accepted flit rate average= 0.04925
	minimum = 0.04 (at node 12)
	maximum = 0.0573333 (at node 6)
Injected packet length average = 1
Accepted packet length average = 1
Total in-flight flits = 22 (22 measured)
latency change    = 0.0112812
throughput change = 0.0126904
Class 0:
Packet latency average = 23.7157
	minimum = 7
	maximum = 109
Network latency average = 23.7157
	minimum = 7
	maximum = 109
Slowest packet = 2671
Flit latency average = 23.7143
	minimum = 7
	maximum = 109
Slowest flit = 2671
Fragmentation average = 0
	minimum = 0
	maximum = 0
Injected packet rate average = 0.0506562
	minimum = 0.0425 (at node 1)
	maximum = 0.0695 (at node 10)
Accepted packet rate average = 0.0503125
	minimum = 0.043 (at node 0)
	maximum = 0.0585 (at node 8)
Injected flit rate average = 0.0506562
	minimum = 0.0425 (at node 1)
	maximum = 0.0695 (at node 10)
Accepted flit rate average= 0.0503125
	minimum = 0.043 (at node 0)
	maximum = 0.0585 (at node 8)
Injected packet length average = 1
Accepted packet length average = 1
Total in-flight flits = 24 (24 measured)
latency change    = 0.00312632
throughput change = 0.021118
Class 0:
Packet latency average = 23.793
	minimum = 7
	maximum = 109
Network latency average = 23.7915
	minimum = 7
	maximum = 109
Slowest packet = 2671
Flit latency average = 23.7899
	minimum = 7
	maximum = 109
Slowest flit = 2671
Fragmentation average = 0
	minimum = 0
	maximum = 0
Injected packet rate average = 0.051225
	minimum = 0.0404 (at node 1)
	maximum = 0.0648 (at node 10)
Accepted packet rate average = 0.05105
	minimum = 0.044 (at node 3)
	maximum = 0.0568 (at node 6)
Injected flit rate average = 0.051225
	minimum = 0.0404 (at node 1)
	maximum = 0.0648 (at node 10)
Accepted flit rate average= 0.05105
	minimum = 0.044 (at node 3)
	maximum = 0.0568 (at node 6)
Injected packet length average = 1
Accepted packet length average = 1
Total in-flight flits = 20 (20 measured)
latency change    = 0.0032482
throughput change = 0.0144466
Draining all recorded packets ...
Draining remaining packets ...
Time taken is 4085 cycles
Class 0:
Packet latency average = 23.4093
	minimum = 7
	maximum = 72
Network latency average = 23.4093
	minimum = 7
	maximum = 72
Slowest packet = 3408
Flit latency average = 23.4093
	minimum = 7
	maximum = 72
Slowest flit = 3408
Fragmentation average = 0
	minimum = 0
	maximum = 0
Injected packet rate average = 0.05025
	minimum = 0.04 (at node 4)
	maximum = 0.062 (at node 13)
Accepted packet rate average = 0.04825
	minimum = 0.028 (at node 11)
	maximum = 0.062 (at node 0)
Injected flit rate average = 0.05025
	minimum = 0.04 (at node 4)
	maximum = 0.062 (at node 13)
Accepted flit rate average= 0.04825
	minimum = 0.028 (at node 11)
	maximum = 0.062 (at node 0)
Injected packet length average = 1
Accepted packet length average = 1
Total in-flight flits = 16 (0 measured)
latency change    = 1
throughput change = 1
Class 0:
Packet latency average = 24.4067
	minimum = 7
	maximum = 95
Network latency average = 24.4067
	minimum = 7
	maximum = 95
Slowest packet = 3729
Flit latency average = 24.4067
	minimum = 7
	maximum = 95
Slowest flit = 3729
Fragmentation average = 0
	minimum = 0
	maximum = 0
Injected packet rate average = 0.051875
	minimum = 0.045 (at node 4)
	maximum = 0.065 (at node 8)
Accepted packet rate average = 0.0505625
	minimum = 0.04 (at node 8)
	maximum = 0.064 (at node 7)
Injected flit rate average = 0.051875
	minimum = 0.045 (at node 4)
	maximum = 0.065 (at node 8)
Accepted flit rate average= 0.0505625
	minimum = 0.04 (at node 8)
	maximum = 0.064 (at node 7)
Injected packet length average = 1
Accepted packet length average = 1
Total in-flight flits = 21 (0 measured)
latency change    = 0.0408638
throughput change = 0.0457355
Class 0:
Packet latency average = 22.405
	minimum = 7
	maximum = 67
Network latency average = 22.405
	minimum = 7
	maximum = 67
Slowest packet = 4401
Flit latency average = 22.405
	minimum = 7
	maximum = 67
Slowest flit = 4401
Fragmentation average = 0
	minimum = 0
	maximum = 0
Injected packet rate average = 0.054125
	minimum = 0.03 (at node 11)
	maximum = 0.072 (at node 7)
Accepted packet rate average = 0.054625
	minimum = 0.04 (at node 2)
	maximum = 0.08 (at node 10)
Injected flit rate average = 0.054125
	minimum = 0.03 (at node 11)
	maximum = 0.072 (at node 7)
Accepted flit rate average= 0.054625
	minimum = 0.04 (at node 2)
	maximum = 0.08 (at node 10)
Injected packet length average = 1
Accepted packet length average = 1
Total in-flight flits = 17 (0 measured)
latency change    = 0.0893389
throughput change = 0.0743707
Warmed up ...Time used is 1500 cycles
Class 0:
Packet latency average = 23.1603
	minimum = 7
	maximum = 77
Network latency average = 23.1603
	minimum = 7
	maximum = 77
Slowest packet = 4823
Flit latency average = 23.426
	minimum = 7
	maximum = 77
Slowest flit = 4823
Fragmentation average = 0
	minimum = 0
	maximum = 0
Injected packet rate average = 0.048625
	minimum = 0.036 (at node 15)
	maximum = 0.066 (at node 13)
Accepted packet rate average = 0.048125
	minimum = 0.034 (at node 3)
	maximum = 0.06 (at node 0)
Injected flit rate average = 0.048625
	minimum = 0.036 (at node 15)
	maximum = 0.066 (at node 13)
Accepted flit rate average= 0.048125
	minimum = 0.034 (at node 3)
	maximum = 0.06 (at node 0)
Injected packet length average = 1
Accepted packet length average = 1
Total in-flight flits = 21 (21 measured)
latency change    = 0.0326114
throughput change = 0.135065
Class 0:
Packet latency average = 24.5101
	minimum = 7
	maximum = 100
Network latency average = 24.5076
	minimum = 7
	maximum = 100
Slowest packet = 5140
Flit latency average = 24.6057
	minimum = 7
	maximum = 100
Slowest flit = 5140
Fragmentation average = 0
	minimum = 0
	maximum = 0
Injected packet rate average = 0.0504375
	minimum = 0.044 (at node 12)
	maximum = 0.063 (at node 5)
Accepted packet rate average = 0.0505625
	minimum = 0.036 (at node 8)
	maximum = 0.065 (at node 10)
Injected flit rate average = 0.0504375
	minimum = 0.044 (at node 12)
	maximum = 0.063 (at node 5)
Accepted flit rate average= 0.0505625
	minimum = 0.036 (at node 8)
	maximum = 0.065 (at node 10)
Injected packet length average = 1
Accepted packet length average = 1
Total in-flight flits = 15 (15 measured)
latency change    = 0.0550701
throughput change = 0.0482077
Class 0:
Packet latency average = 24.057
	minimum = 7
	maximum = 100
Network latency average = 24.0553
	minimum = 7
	maximum = 100
Slowest packet = 5140
Flit latency average = 24.1284
	minimum = 7
	maximum = 100
Slowest flit = 5140
Fragmentation average = 0
	minimum = 0
	maximum = 0
Injected packet rate average = 0.04975
	minimum = 0.044 (at node 15)
	maximum = 0.0566667 (at node 3)
Accepted packet rate average = 0.0496667
	minimum = 0.0373333 (at node 8)
	maximum = 0.0606667 (at node 10)
Injected flit rate average = 0.04975
	minimum = 0.044 (at node 15)
	maximum = 0.0566667 (at node 3)
Accepted flit rate average= 0.0496667
	minimum = 0.0373333 (at node 8)
	maximum = 0.0606667 (at node 10)
Injected packet length average = 1
Accepted packet length average = 1
Total in-flight flits = 19 (19 measured)
latency change    = 0.0188336
throughput change = 0.0180369
Class 0:
Packet latency average = 24.213
	minimum = 7
	maximum = 100
Network latency average = 24.2104
	minimum = 7
	maximum = 100
Slowest packet = 5140
Flit latency average = 24.2635
	minimum = 7
	maximum = 100
Slowest flit = 5140
Fragmentation average = 0
	minimum = 0
	maximum = 0
Injected packet rate average = 0.0499375
	minimum = 0.0435 (at node 11)
	maximum = 0.0605 (at node 5)
Accepted packet rate average = 0.0496875
	minimum = 0.038 (at node 1)
	maximum = 0.0595 (at node 10)
Injected flit rate average = 0.0499375
	minimum = 0.0435 (at node 11)
	maximum = 0.0605 (at node 5)
Accepted flit rate average= 0.0496875
	minimum = 0.038 (at node 1)
	maximum = 0.0595 (at node 10)
Injected packet length average = 1
Accepted packet length average = 1
Total in-flight flits = 25 (25 measured)
latency change    = 0.00644066
throughput change = 0.000419287
Class 0:
Packet latency average = 24.0466
	minimum = 7
	maximum = 100
Network latency average = 24.0446
	minimum = 7
	maximum = 100
Slowest packet = 5140
Flit latency average = 24.0884
	minimum = 7
	maximum = 100
Slowest flit = 5140
Fragmentation average = 0
	minimum = 0
	maximum = 0
Injected packet rate average = 0.049625
	minimum = 0.0444 (at node 9)
	maximum = 0.0556 (at node 5)
Accepted packet rate average = 0.049775
	minimum = 0.0392 (at node 1)
	maximum = 0.058 (at node 10)
Injected flit rate average = 0.049625
	minimum = 0.0444 (at node 9)
	maximum = 0.0556 (at node 5)
Accepted flit rate average= 0.049775
	minimum = 0.0392 (at node 1)
	maximum = 0.058 (at node 10)
Injected packet length average = 1
Accepted packet length average = 1
Total in-flight flits = 11 (11 measured)
latency change    = 0.00691836
throughput change = 0.00175791
Draining all recorded packets ...
Draining remaining packets ...
Time taken is 4092 cycles
Class 0:
Packet latency average = 22.127
	minimum = 7
	maximum = 73
Network latency average = 22.127
	minimum = 7
	maximum = 73
Slowest packet = 6643
Flit latency average = 22.127
	minimum = 7
	maximum = 73
Slowest flit = 6643
Fragmentation average = 0
	minimum = 0
	maximum = 0
Injected packet rate average = 0.04975
	minimum = 0.038 (at node 11)
	maximum = 0.068 (at node 15)
Accepted packet rate average = 0.04625
	minimum = 0.03 (at node 13)
	maximum = 0.07 (at node 14)
Injected flit rate average = 0.04975
	minimum = 0.038 (at node 11)
	maximum = 0.068 (at node 15)
Accepted flit rate average= 0.04625
	minimum = 0.03 (at node 13)
	maximum = 0.07 (at node 14)
Injected packet length average = 1
Accepted packet length average = 1
Total in-flight flits = 28 (0 measured)
latency change    = 1
throughput change = 1
Class 0:
Packet latency average = 22.8792
	minimum = 7
	maximum = 89
Network latency average = 22.8792
	minimum = 7
	maximum = 89
Slowest packet = 6871
Flit latency average = 22.8792
	minimum = 7
	maximum = 89
Slowest flit = 6871
Fragmentation average = 0
	minimum = 0
	maximum = 0
Injected packet rate average = 0.05
	minimum = 0.039 (at node 9)
	maximum = 0.065 (at node 15)
Accepted packet rate average = 0.048625
	minimum = 0.039 (at node 1)
	maximum = 0.064 (at node 14)
Injected flit rate average = 0.05
	minimum = 0.039 (at node 9)
	maximum = 0.065 (at node 15)
Accepted flit rate average= 0.048625
	minimum = 0.039 (at node 1)
	maximum = 0.064 (at node 14)
Injected packet length average = 1
Accepted packet length average = 1
Total in-flight flits = 22 (0 measured)
latency change    = 0.0328749
throughput change = 0.0488432
Class 0:
Packet latency average = 23.4069
	minimum = 7
	maximum = 134
Network latency average = 23.4069
	minimum = 7
	maximum = 134
Slowest packet = 7256
Flit latency average = 23.4069
	minimum = 7
	maximum = 134
Slowest flit = 7256
Fragmentation average = 0
	minimum = 0
	maximum = 0
Injected packet rate average = 0.050375
	minimum = 0.036 (at node 4)
	maximum = 0.064 (at node 8)
Accepted packet rate average = 0.051
	minimum = 0.032 (at node 14)
	maximum = 0.066 (at node 2)
Injected flit rate average = 0.050375
	minimum = 0.036 (at node 4)
	maximum = 0.064 (at node 8)
Accepted flit rate average= 0.051
	minimum = 0.032 (at node 14)
	maximum = 0.066 (at node 2)
Injected packet length average = 1
Accepted packet length average = 1
Total in-flight flits = 17 (0 measured)
latency change    = 0.022544
throughput change = 0.0465686
Warmed up ...Time used is 1500 cycles
Class 0:
Packet latency average = 21.3848
	minimum = 7
	maximum = 66
Network latency average = 21.3796
	minimum = 7
	maximum = 66
Slowest packet = 8039
Flit latency average = 21.4637
	minimum = 7
	maximum = 66
Slowest flit = 8039
Fragmentation average = 0
	minimum = 0
	maximum = 0
Injected packet rate average = 0.049625
	minimum = 0.038 (at node 2)
	maximum = 0.076 (at node 14)
Accepted packet rate average = 0.049875
	minimum = 0.04 (at node 3)
	maximum = 0.066 (at node 6)
Injected flit rate average = 0.049625
	minimum = 0.038 (at node 2)
	maximum = 0.076 (at node 14)
Accepted flit rate average= 0.049875
	minimum = 0.04 (at node 3)
	maximum = 0.066 (at node 6)
Injected packet length average = 1
Accepted packet length average = 1
Total in-flight flits = 15 (15 measured)
latency change    = 0.0945552
throughput change = 0.0225564
Class 0:
Packet latency average = 22.6909
	minimum = 7
	maximum = 86
Network latency average = 22.6884
	minimum = 7
	maximum = 86
Slowest packet = 8473
Flit latency average = 22.7021
	minimum = 7
	maximum = 86
Slowest flit = 8473
Fragmentation average = 0
	minimum = 0
	maximum = 0
Injected packet rate average = 0.0520625
	minimum = 0.036 (at node 5)
	maximum = 0.066 (at node 0)
Accepted packet rate average = 0.0518125
	minimum = 0.043 (at node 14)
	maximum = 0.062 (at node 8)
Injected flit rate average = 0.0520625
	minimum = 0.036 (at node 5)
	maximum = 0.066 (at node 0)
Accepted flit rate average= 0.0518125
	minimum = 0.043 (at node 14)
	maximum = 0.062 (at node 8)
Injected packet length average = 1
Accepted packet length average = 1
Total in-flight flits = 21 (21 measured)
latency change    = 0.0575592
throughput change = 0.0373945
Class 0:
Packet latency average = 23.491
	minimum = 7
	maximum = 121
Network latency average = 23.4894
	minimum = 7
	maximum = 121
Slowest packet = 8600
Flit latency average = 23.4876
	minimum = 7
	maximum = 121
Slowest flit = 8600
Fragmentation average = 0
	minimum = 0
	maximum = 0
Injected packet rate average = 0.0519167
	minimum = 0.0406667 (at node 5)
	maximum = 0.0606667 (at node 6)
Accepted packet rate average = 0.051875
	minimum = 0.044 (at node 2)
	maximum = 0.0586667 (at node 15)
Injected flit rate average = 0.0519167
	minimum = 0.0406667 (at node 5)
	maximum = 0.0606667 (at node 6)
Accepted flit rate average= 0.051875
	minimum = 0.044 (at node 2)
	maximum = 0.0586667 (at node 15)
Injected packet length average = 1
Accepted packet length average = 1
Total in-flight flits = 18 (18 measured)
latency change    = 0.0340622
throughput change = 0.00120482
Class 0:
Packet latency average = 23.4914
	minimum = 7
	maximum = 121
Network latency average = 23.4901
	minimum = 7
	maximum = 121
Slowest packet = 8600
Flit latency average = 23.4887
	minimum = 7
	maximum = 121
Slowest flit = 8600
Fragmentation average = 0
	minimum = 0
	maximum = 0
Injected packet rate average = 0.0512813
	minimum = 0.0425 (at node 5)
	maximum = 0.057 (at node 6)
Accepted packet rate average = 0.0512813
	minimum = 0.0445 (at node 3)
	maximum = 0.0605 (at node 15)
Injected flit rate average = 0.0512813
	minimum = 0.0425 (at node 5)
	maximum = 0.057 (at node 6)
Accepted flit rate average= 0.0512813
	minimum = 0.0445 (at node 3)
	maximum = 0.0605 (at node 15)
Injected packet length average = 1
Accepted packet length average = 1
Total in-flight flits = 17 (17 measured)
latency change    = 1.43442e-05
throughput change = 0.0115783
Class 0:
Packet latency average = 23.253
	minimum = 7
	maximum = 121
Network latency average = 23.252
	minimum = 7
	maximum = 121
Slowest packet = 8600
Flit latency average = 23.2528
	minimum = 7
	maximum = 121
Slowest flit = 8600
Fragmentation average = 0
	minimum = 0
	maximum = 0
Injected packet rate average = 0.050875
	minimum = 0.0448 (at node 5)
	maximum = 0.0576 (at node 14)
Accepted packet rate average = 0.050825
	minimum = 0.044 (at node 3)
	maximum = 0.0564 (at node 15)
Injected flit rate average = 0.050875
	minimum = 0.0448 (at node 5)
	maximum = 0.0576 (at node 14)
Accepted flit rate average= 0.050825
	minimum = 0.044 (at node 3)
	maximum = 0.0564 (at node 15)
Injected packet length average = 1
Accepted packet length average = 1
Total in-flight flits = 19 (19 measured)
latency change    = 0.0102526
throughput change = 0.00897688
Draining all recorded packets ...
Draining remaining packets ...
Time taken is 4084 cycles
Class 0:
Packet latency average = 21.275
	minimum = 7
	maximum = 73
Network latency average = 21.275
	minimum = 7
	maximum = 73
Slowest packet = 9962
Flit latency average = 21.275
	minimum = 7
	maximum = 73
Slowest flit = 9962
Fragmentation average = 0
	minimum = 0
	maximum = 0
Injected packet rate average = 0.046875
	minimum = 0.036 (at node 1)
	maximum = 0.06 (at node 15)
Accepted packet rate average = 0.045
	minimum = 0.028 (at node 0)
	maximum = 0.06 (at node 2)
Injected flit rate average = 0.046875
	minimum = 0.036 (at node 1)
	maximum = 0.06 (at node 15)
Accepted flit rate average= 0.045
	minimum = 0.028 (at node 0)
	maximum = 0.06 (at node 2)
Injected packet length average = 1
Accepted packet length average = 1
Total in-flight flits = 15 (0 measured)
latency change    = 1
throughput change = 1
Class 0:
Packet latency average = 23.0562
	minimum = 7
	maximum = 106
Network latency average = 23.0254
	minimum = 7
	maximum = 106
Slowest packet = 10361
Flit latency average = 23.0254
	minimum = 7
	maximum = 106
Slowest flit = 10361
Fragmentation average = 0
	minimum = 0
	maximum = 0
Injected packet rate average = 0.0480625
	minimum = 0.039 (at node 6)
	maximum = 0.061 (at node 15)
Accepted packet rate average = 0.0466875
	minimum = 0.028 (at node 0)
	maximum = 0.062 (at node 12)
Injected flit rate average = 0.0480625
	minimum = 0.039 (at node 6)
	maximum = 0.061 (at node 15)
Accepted flit rate average= 0.0466875
	minimum = 0.028 (at node 0)
	maximum = 0.062 (at node 12)
Injected packet length average = 1
Accepted packet length average = 1
Total in-flight flits = 22 (0 measured)
latency change    = 0.0772557
throughput change = 0.0361446
Class 0:
Packet latency average = 23.6212
	minimum = 7
	maximum = 74
Network latency average = 23.6212
	minimum = 7
	maximum = 74
Slowest packet = 10846
Flit latency average = 23.6212
	minimum = 7
	maximum = 74
Slowest flit = 10846
Fragmentation average = 0
	minimum = 0
	maximum = 0
Injected packet rate average = 0.049125
	minimum = 0.034 (at node 0)
	maximum = 0.064 (at node 8)
Accepted packet rate average = 0.0495
	minimum = 0.038 (at node 0)
	maximum = 0.064 (at node 5)
Injected flit rate average = 0.049125
	minimum = 0.034 (at node 0)
	maximum = 0.064 (at node 8)
Accepted flit rate average= 0.0495
	minimum = 0.038 (at node 0)
	maximum = 0.064 (at node 5)
Injected packet length average = 1
Accepted packet length average = 1
Total in-flight flits = 19 (0 measured)
latency change    = 0.0239186
throughput change = 0.0568182
Warmed up ...Time used is 1500 cycles
Class 0:
Packet latency average = 23.617
	minimum = 7
	maximum = 100
Network latency average = 23.617
	minimum = 7
	maximum = 100
Slowest packet = 11135
Flit latency average = 23.8684
	minimum = 7
	maximum = 100
Slowest flit = 11135
Fragmentation average = 0
	minimum = 0
	maximum = 0
Injected packet rate average = 0.049375
	minimum = 0.034 (at node 2)
	maximum = 0.066 (at node 6)
Accepted packet rate average = 0.049375
	minimum = 0.03 (at node 7)
	maximum = 0.066 (at node 13)
Injected flit rate average = 0.049375
	minimum = 0.034 (at node 2)
	maximum = 0.066 (at node 6)
Accepted flit rate average= 0.049375
	minimum = 0.03 (at node 7)
	maximum = 0.066 (at node 13)
Injected packet length average = 1
Accepted packet length average = 1
Total in-flight flits = 19 (19 measured)
latency change    = 0.00017745
throughput change = 0.00253165
Class 0:
Packet latency average = 23.7353
	minimum = 7
	maximum = 100
Network latency average = 23.7353
	minimum = 7
	maximum = 100
Slowest packet = 11135
Flit latency average = 23.8564
	minimum = 7
	maximum = 100
Slowest flit = 11135
Fragmentation average = 0
	minimum = 0
	maximum = 0
Injected packet rate average = 0.05025
	minimum = 0.042 (at node 2)
	maximum = 0.061 (at node 11)
Accepted packet rate average = 0.0500625
	minimum = 0.039 (at node 7)
	maximum = 0.058 (at node 0)
Injected flit rate average = 0.05025
	minimum = 0.042 (at node 2)
	maximum = 0.061 (at node 11)
Accepted flit rate average= 0.0500625
	minimum = 0.039 (at node 7)
	maximum = 0.058 (at node 0)
Injected packet length average = 1
Accepted packet length average = 1
Total in-flight flits = 22 (22 measured)
latency change    = 0.00498299
throughput change = 0.0137328
Class 0:
Packet latency average = 23.9643
	minimum = 7
	maximum = 100
Network latency average = 23.9643
	minimum = 7
	maximum = 100
Slowest packet = 11135
Flit latency average = 24.0419
	minimum = 7
	maximum = 100
Slowest flit = 11135
Fragmentation average = 0
	minimum = 0
	maximum = 0
Injected packet rate average = 0.0498333
	minimum = 0.0433333 (at node 14)
	maximum = 0.0613333 (at node 11)
Accepted packet rate average = 0.04975
	minimum = 0.0413333 (at node 7)
	maximum = 0.0573333 (at node 0)
Injected flit rate average = 0.0498333
	minimum = 0.0433333 (at node 14)
	maximum = 0.0613333 (at node 11)
Accepted flit rate average= 0.04975
	minimum = 0.0413333 (at node 7)
	maximum = 0.0573333 (at node 0)
Injected packet length average = 1
Accepted packet length average = 1
Total in-flight flits = 21 (21 measured)
latency change    = 0.00955428
throughput change = 0.00628141
Draining all recorded packets ...
Draining remaining packets ...
Time taken is 3125 cycles
Class 0:
Packet latency average = 22.7532
	minimum = 7
	maximum = 75
Network latency average = 22.7532
	minimum = 7
	maximum = 75
Slowest packet = 12435
Flit latency average = 22.7532
	minimum = 7
	maximum = 75
Slowest flit = 12435
Fragmentation average = 0
	minimum = 0
	maximum = 0
Injected packet rate average = 0.0515
	minimum = 0.034 (at node 13)
	maximum = 0.082 (at node 1)
Accepted packet rate average = 0.049125
	minimum = 0.022 (at node 3)
	maximum = 0.064 (at node 6)
Injected flit rate average = 0.0515
	minimum = 0.034 (at node 13)
	maximum = 0.082 (at node 1)
Accepted flit rate average= 0.049125
	minimum = 0.022 (at node 3)
	maximum = 0.064 (at node 6)
Injected packet length average = 1
Accepted packet length average = 1
Total in-flight flits = 19 (0 measured)
latency change    = 1
throughput change = 1
Class 0:
Packet latency average = 23.8242
	minimum = 7
	maximum = 133
Network latency average = 23.8242
	minimum = 7
	maximum = 133
Slowest packet = 12844
Flit latency average = 23.8242
	minimum = 7
	maximum = 133
Slowest flit = 12844
Fragmentation average = 0
	minimum = 0
	maximum = 0
Injected packet rate average = 0.052625
	minimum = 0.037 (at node 13)
	maximum = 0.065 (at node 1)
Accepted packet rate average = 0.0511875
	minimum = 0.035 (at node 2)
	maximum = 0.067 (at node 10)
Injected flit rate average = 0.052625
	minimum = 0.037 (at node 13)
	maximum = 0.065 (at node 1)
Accepted flit rate average= 0.0511875
	minimum = 0.035 (at node 2)
	maximum = 0.067 (at node 10)
Injected packet length average = 1
Accepted packet length average = 1
Total in-flight flits = 23 (0 measured)
latency change    = 0.0449541
throughput change = 0.040293
Class 0:
Packet latency average = 22.0893
	minimum = 7
	maximum = 57
Network latency average = 22.0893
	minimum = 7
	maximum = 57
Slowest packet = 13348
Flit latency average = 22.0893
	minimum = 7
	maximum = 57
Slowest flit = 13348
Fragmentation average = 0
	minimum = 0
	maximum = 0
Injected packet rate average = 0.04925
	minimum = 0.036 (at node 1)
	maximum = 0.07 (at node 8)
Accepted packet rate average = 0.050375
	minimum = 0.04 (at node 3)
	maximum = 0.064 (at node 1)
Injected flit rate average = 0.04925
	minimum = 0.036 (at node 1)
	maximum = 0.07 (at node 8)
Accepted flit rate average= 0.050375
	minimum = 0.04 (at node 3)
	maximum = 0.064 (at node 1)
Injected packet length average = 1
Accepted packet length average = 1
Total in-flight flits = 14 (0 measured)
latency change    = 0.0785377
throughput change = 0.016129
Warmed up ...Time used is 1500 cycles
Class 0:
Packet latency average = 22.2727
	minimum = 7
	maximum = 81
Network latency average = 22.2727
	minimum = 7
	maximum = 81
Slowest packet = 13689
Flit latency average = 22.4817
	minimum = 7
	maximum = 81
Slowest flit = 13689
Fragmentation average = 0
	minimum = 0
	maximum = 0
Injected packet rate average = 0.045875
	minimum = 0.028 (at node 5)
	maximum = 0.07 (at node 8)
Accepted packet rate average = 0.044375
	minimum = 0.03 (at node 5)
	maximum = 0.058 (at node 0)
Injected flit rate average = 0.045875
	minimum = 0.028 (at node 5)
	maximum = 0.07 (at node 8)
Accepted flit rate average= 0.044375
	minimum = 0.03 (at node 5)
	maximum = 0.058 (at node 0)
Injected packet length average = 1
Accepted packet length average = 1
Total in-flight flits = 26 (26 measured)
latency change    = 0.00823416
throughput change = 0.135211
Class 0:
Packet latency average = 23.0716
	minimum = 7
	maximum = 101
Network latency average = 23.0716
	minimum = 7
	maximum = 101
Slowest packet = 14119
Flit latency average = 23.1552
	minimum = 7
	maximum = 101
Slowest flit = 14119
Fragmentation average = 0
	minimum = 0
	maximum = 0
Injected packet rate average = 0.048375
	minimum = 0.036 (at node 1)
	maximum = 0.064 (at node 8)
Accepted packet rate average = 0.047125
	minimum = 0.04 (at node 8)
	maximum = 0.054 (at node 11)
Injected flit rate average = 0.048375
	minimum = 0.036 (at node 1)
	maximum = 0.064 (at node 8)
Accepted flit rate average= 0.047125
	minimum = 0.04 (at node 8)
	maximum = 0.054 (at node 11)
Injected packet length average = 1
Accepted packet length average = 1
Total in-flight flits = 34 (34 measured)
latency change    = 0.0346267
throughput change = 0.0583554
Class 0:
Packet latency average = 24.5902
	minimum = 7
	maximum = 138
Network latency average = 24.5902
	minimum = 7
	maximum = 138
Slowest packet = 14190
Flit latency average = 24.625
	minimum = 7
	maximum = 138
Slowest flit = 14190
Fragmentation average = 0
	minimum = 0
	maximum = 0
Injected packet rate average = 0.0502917
	minimum = 0.0373333 (at node 1)
	maximum = 0.0593333 (at node 4)
Accepted packet rate average = 0.05
	minimum = 0.0446667 (at node 10)
	maximum = 0.0573333 (at node 13)
Injected flit rate average = 0.0502917
	minimum = 0.0373333 (at node 1)
	maximum = 0.0593333 (at node 4)
Accepted flit rate average= 0.05
	minimum = 0.0446667 (at node 10)
	maximum = 0.0573333 (at node 13)
Injected packet length average = 1
Accepted packet length average = 1
Total in-flight flits = 21 (21 measured)
latency change    = 0.0617562
throughput change = 0.0575
Class 0:
Packet latency average = 24.2731
	minimum = 7
	maximum = 138
Network latency average = 24.2731
	minimum = 7
	maximum = 138
Slowest packet = 14190
Flit latency average = 24.3024
	minimum = 7
	maximum = 138
Slowest flit = 14190
Fragmentation average = 0
	minimum = 0
	maximum = 0
Injected packet rate average = 0.0491875
	minimum = 0.0405 (at node 1)
	maximum = 0.056 (at node 6)
Accepted packet rate average = 0.0491875
	minimum = 0.0425 (at node 10)
	maximum = 0.056 (at node 4)
Injected flit rate average = 0.0491875
	minimum = 0.0405 (at node 1)
	maximum = 0.056 (at node 6)
Accepted flit rate average= 0.0491875
	minimum = 0.0425 (at node 10)
	maximum = 0.056 (at node 4)
Injected packet length average = 1
Accepted packet length average = 1
Total in-flight flits = 14 (14 measured)
latency change    = 0.0130656
throughput change = 0.0165184
Class 0:
Packet latency average = 23.9225
	minimum = 7
	maximum = 138
Network latency average = 23.9225
	minimum = 7
	maximum = 138
Slowest packet = 14190
Flit latency average = 23.9485
	minimum = 7
	maximum = 138
Slowest flit = 14190
Fragmentation average = 0
	minimum = 0
	maximum = 0
Injected packet rate average = 0.0493
	minimum = 0.04 (at node 3)
	maximum = 0.0544 (at node 0)
Accepted packet rate average = 0.049075
	minimum = 0.0424 (at node 0)
	maximum = 0.0576 (at node 13)
Injected flit rate average = 0.0493
	minimum = 0.04 (at node 3)
	maximum = 0.0544 (at node 0)
Accepted flit rate average= 0.049075
	minimum = 0.0424 (at node 0)
	maximum = 0.0576 (at node 13)
Injected packet length average = 1
Accepted packet length average = 1
Total in-flight flits = 23 (23 measured)
latency change    = 0.0146537
throughput change = 0.00229241
Class 0:
Packet latency average = 23.7237
	minimum = 7
	maximum = 138
Network latency average = 23.7237
	minimum = 7
	maximum = 138
Slowest packet = 14190
Flit latency average = 23.7466
	minimum = 7
	maximum = 138
Slowest flit = 14190
Fragmentation average = 0
	minimum = 0
	maximum = 0
Injected packet rate average = 0.0489375
	minimum = 0.042 (at node 3)
	maximum = 0.0543333 (at node 8)
Accepted packet rate average = 0.0489167
	minimum = 0.0436667 (at node 0)
	maximum = 0.0576667 (at node 13)
Injected flit rate average = 0.0489375
	minimum = 0.042 (at node 3)
	maximum = 0.0543333 (at node 8)
Accepted flit rate average= 0.0489167
	minimum = 0.0436667 (at node 0)
	maximum = 0.0576667 (at node 13)
Injected packet length average = 1
Accepted packet length average = 1
Total in-flight flits = 15 (15 measured)
latency change    = 0.00838294
throughput change = 0.0032368
Draining all recorded packets ...
Draining remaining packets ...
Time taken is 4557 cycles
Class 0:
Packet latency average = 25.5448
	minimum = 7
	maximum = 125
Network latency average = 25.5345
	minimum = 7
	maximum = 125
Slowest packet = 16046
Flit latency average = 25.5345
	minimum = 7
	maximum = 125
Slowest flit = 16046
Fragmentation average = 0
	minimum = 0
	maximum = 0
Injected packet rate average = 0.051125
	minimum = 0.04 (at node 6)
	maximum = 0.066 (at node 4)
Accepted packet rate average = 0.048875
	minimum = 0.034 (at node 7)
	maximum = 0.082 (at node 6)
Injected flit rate average = 0.051125
	minimum = 0.04 (at node 6)
	maximum = 0.066 (at node 4)
Accepted flit rate average= 0.048875
	minimum = 0.034 (at node 7)
	maximum = 0.082 (at node 6)
Injected packet length average = 1
Accepted packet length average = 1
Total in-flight flits = 18 (0 measured)
latency change    = 1
throughput change = 1
Class 0:
Packet latency average = 24.1008
	minimum = 7
	maximum = 125
Network latency average = 24.0957
	minimum = 7
	maximum = 125
Slowest packet = 16046
Flit latency average = 24.0957
	minimum = 7
	maximum = 125
Slowest flit = 16046
Fragmentation average = 0
	minimum = 0
	maximum = 0
Injected packet rate average = 0.0508125
	minimum = 0.041 (at node 3)
	maximum = 0.064 (at node 10)
Accepted packet rate average = 0.049
	minimum = 0.037 (at node 14)
	maximum = 0.066 (at node 6)
Injected flit rate average = 0.0508125
	minimum = 0.041 (at node 3)
	maximum = 0.064 (at node 10)
Accepted flit rate average= 0.049
	minimum = 0.037 (at node 14)
	maximum = 0.066 (at node 6)
Injected packet length average = 1
Accepted packet length average = 1
Total in-flight flits = 29 (0 measured)
latency change    = 0.0599148
throughput change = 0.00255102
Class 0:
Packet latency average = 25.459
	minimum = 7
	maximum = 77
Network latency average = 25.459
	minimum = 7
	maximum = 77
Slowest packet = 16652
Flit latency average = 25.459
	minimum = 7
	maximum = 77
Slowest flit = 16652
Fragmentation average = 0
	minimum = 0
	maximum = 0
Injected packet rate average = 0.047875
	minimum = 0.02 (at node 10)
	maximum = 0.08 (at node 3)
Accepted packet rate average = 0.04875
	minimum = 0.032 (at node 11)
	maximum = 0.07 (at node 15)
Injected flit rate average = 0.047875
	minimum = 0.02 (at node 10)
	maximum = 0.08 (at node 3)
Accepted flit rate average= 0.04875
	minimum = 0.032 (at node 11)
	maximum = 0.07 (at node 15)
Injected packet length average = 1
Accepted packet length average = 1
Total in-flight flits = 22 (0 measured)
latency change    = 0.0533489
throughput change = 0.00512821
Warmed up ...Time used is 1500 cycles
Class 0:
Packet latency average = 22.0759
	minimum = 7
	maximum = 70
Network latency average = 22.0759
	minimum = 7
	maximum = 70
Slowest packet = 17256
Flit latency average = 22.3248
	minimum = 7
	maximum = 70
Slowest flit = 17256
Fragmentation average = 0
	minimum = 0
	maximum = 0
Injected packet rate average = 0.048375
	minimum = 0.032 (at node 5)
	maximum = 0.072 (at node 7)
Accepted packet rate average = 0.048875
	minimum = 0.03 (at node 1)
	maximum = 0.078 (at node 14)
Injected flit rate average = 0.048375
	minimum = 0.032 (at node 5)
	maximum = 0.072 (at node 7)
Accepted flit rate average= 0.048875
	minimum = 0.03 (at node 1)
	maximum = 0.078 (at node 14)
Injected packet length average = 1
Accepted packet length average = 1
Total in-flight flits = 18 (18 measured)
latency change    = 0.153248
throughput change = 0.00255754
Class 0:
Packet latency average = 22.653
	minimum = 7
	maximum = 98
Network latency average = 22.653
	minimum = 7
	maximum = 98
Slowest packet = 17622
Flit latency average = 22.7587
	minimum = 7
	maximum = 98
Slowest flit = 17622
Fragmentation average = 0
	minimum = 0
	maximum = 0
Injected packet rate average = 0.0500625
	minimum = 0.04 (at node 0)
	maximum = 0.063 (at node 2)
Accepted packet rate average = 0.05
	minimum = 0.032 (at node 6)
	maximum = 0.075 (at node 14)
Injected flit rate average = 0.0500625
	minimum = 0.04 (at node 0)
	maximum = 0.063 (at node 2)
Accepted flit rate average= 0.05
	minimum = 0.032 (at node 6)
	maximum = 0.075 (at node 14)
Injected packet length average = 1
Accepted packet length average = 1
Total in-flight flits = 23 (23 measured)
latency change    = 0.0254746
throughput change = 0.0225
Class 0:
Packet latency average = 23.4264
	minimum = 7
	maximum = 98
Network latency average = 23.4264
	minimum = 7
	maximum = 98
Slowest packet = 17622
Flit latency average = 23.4829
	minimum = 7
	maximum = 98
Slowest flit = 17622
Fragmentation average = 0
	minimum = 0
	maximum = 0
Injected packet rate average = 0.04975
	minimum = 0.0413333 (at node 10)
	maximum = 0.0606667 (at node 13)
Accepted packet rate average = 0.049875
	minimum = 0.034 (at node 6)
	maximum = 0.068 (at node 14)
Injected flit rate average = 0.04975
	minimum = 0.0413333 (at node 10)
	maximum = 0.0606667 (at node 13)
Accepted flit rate average= 0.049875
	minimum = 0.034 (at node 6)
	maximum = 0.068 (at node 14)
Injected packet length average = 1
Accepted packet length average = 1
Total in-flight flits = 19 (19 measured)
latency change    = 0.0330152
throughput change = 0.00250627
Class 0:
Packet latency average = 23.923
	minimum = 7
	maximum = 114
Network latency average = 23.923
	minimum = 7
	maximum = 114
Slowest packet = 18422
Flit latency average = 23.9586
	minimum = 7
	maximum = 114
Slowest flit = 18422
Fragmentation average = 0
	minimum = 0
	maximum = 0
Injected packet rate average = 0.0498437
	minimum = 0.0435 (at node 9)
	maximum = 0.0635 (at node 13)
Accepted packet rate average = 0.0498125
	minimum = 0.0375 (at node 6)
	maximum = 0.06 (at node 0)
Injected flit rate average = 0.0498437
	minimum = 0.0435 (at node 9)
	maximum = 0.0635 (at node 13)
Accepted flit rate average= 0.0498125
	minimum = 0.0375 (at node 6)
	maximum = 0.06 (at node 0)
Injected packet length average = 1
Accepted packet length average = 1
Total in-flight flits = 23 (23 measured)
latency change    = 0.0207601
throughput change = 0.00125471
Draining all recorded packets ...
Draining remaining packets ...
Time taken is 3612 cycles
Class 0:
Packet latency average = 22.3062
	minimum = 7
	maximum = 72
Network latency average = 22.3062
	minimum = 7
	maximum = 72
Slowest packet = 18849
Flit latency average = 22.3062
	minimum = 7
	maximum = 72
Slowest flit = 18849
Fragmentation average = 0
	minimum = 0
	maximum = 0
Injected packet rate average = 0.04825
	minimum = 0.036 (at node 2)
	maximum = 0.056 (at node 1)
Accepted packet rate average = 0.046125
	minimum = 0.032 (at node 3)
	maximum = 0.066 (at node 8)
Injected flit rate average = 0.04825
	minimum = 0.036 (at node 2)
	maximum = 0.056 (at node 1)
Accepted flit rate average= 0.046125
	minimum = 0.032 (at node 3)
	maximum = 0.066 (at node 8)
Injected packet length average = 1
Accepted packet length average = 1
Total in-flight flits = 17 (0 measured)
latency change    = 1
throughput change = 1
Class 0:
Packet latency average = 22.8635
	minimum = 7
	maximum = 81
Network latency average = 22.8583
	minimum = 7
	maximum = 81
Slowest packet = 19075
Flit latency average = 22.8583
	minimum = 7
	maximum = 81
Slowest flit = 19075
Fragmentation average = 0
	minimum = 0
	maximum = 0
Injected packet rate average = 0.048875
	minimum = 0.035 (at node 2)
	maximum = 0.059 (at node 12)
Accepted packet rate average = 0.0480625
	minimum = 0.038 (at node 3)
	maximum = 0.066 (at node 6)
Injected flit rate average = 0.048875
	minimum = 0.035 (at node 2)
	maximum = 0.059 (at node 12)
Accepted flit rate average= 0.0480625
	minimum = 0.038 (at node 3)
	maximum = 0.066 (at node 6)
Injected packet length average = 1
Accepted packet length average = 1
Total in-flight flits = 13 (0 measured)
latency change    = 0.0243719
throughput change = 0.0403121
Class 0:
Packet latency average = 24.0524
	minimum = 7
	maximum = 76
Network latency average = 24.0524
	minimum = 7
	maximum = 76
Slowest packet = 19394
Flit latency average = 24.0524
	minimum = 7
	maximum = 76
Slowest flit = 19394
Fragmentation average = 0
	minimum = 0
	maximum = 0
Injected packet rate average = 0.048375
	minimum = 0.028 (at node 3)
	maximum = 0.066 (at node 2)
Accepted packet rate average = 0.04775
	minimum = 0.03 (at node 9)
	maximum = 0.064 (at node 3)
Injected flit rate average = 0.048375
	minimum = 0.028 (at node 3)
	maximum = 0.066 (at node 2)
Accepted flit rate average= 0.04775
	minimum = 0.03 (at node 9)
	maximum = 0.064 (at node 3)
Injected packet length average = 1
Accepted packet length average = 1
Total in-flight flits = 18 (0 measured)
latency change    = 0.0494295
throughput change = 0.0065445
Warmed up ...Time used is 1500 cycles
Class 0:
Packet latency average = 23.6864
	minimum = 7
	maximum = 86
Network latency average = 23.6864
	minimum = 7
	maximum = 86
Slowest packet = 19895
Flit latency average = 24
	minimum = 7
	maximum = 86
Slowest flit = 19895
Fragmentation average = 0
	minimum = 0
	maximum = 0
Injected packet rate average = 0.046625
	minimum = 0.022 (at node 5)
	maximum = 0.062 (at node 10)
Accepted packet rate average = 0.0465
	minimum = 0.036 (at node 2)
	maximum = 0.058 (at node 8)
Injected flit rate average = 0.046625
	minimum = 0.022 (at node 5)
	maximum = 0.062 (at node 10)
Accepted flit rate average= 0.0465
	minimum = 0.036 (at node 2)
	maximum = 0.058 (at node 8)
Injected packet length average = 1
Accepted packet length average = 1
Total in-flight flits = 19 (19 measured)
latency change    = 0.0154483
throughput change = 0.0268817
Class 0:
Packet latency average = 24.9031
	minimum = 7
	maximum = 92
Network latency average = 24.9031
	minimum = 7
	maximum = 92
Slowest packet = 20242
Flit latency average = 25.0276
	minimum = 7
	maximum = 92
Slowest flit = 20242
Fragmentation average = 0
	minimum = 0
	maximum = 0
Injected packet rate average = 0.0475
	minimum = 0.03 (at node 5)
	maximum = 0.058 (at node 3)
Accepted packet rate average = 0.0475625
	minimum = 0.036 (at node 2)
	maximum = 0.064 (at node 13)
Injected flit rate average = 0.0475
	minimum = 0.03 (at node 5)
	maximum = 0.058 (at node 3)
Accepted flit rate average= 0.0475625
	minimum = 0.036 (at node 2)
	maximum = 0.064 (at node 13)
Injected packet length average = 1
Accepted packet length average = 1
Total in-flight flits = 17 (17 measured)
latency change    = 0.0488556
throughput change = 0.022339
Class 0:
Packet latency average = 24.3395
	minimum = 7
	maximum = 92
Network latency average = 24.3395
	minimum = 7
	maximum = 92
Slowest packet = 20242
Flit latency average = 24.4311
	minimum = 7
	maximum = 92
Slowest flit = 20242
Fragmentation average = 0
	minimum = 0
	maximum = 0
Injected packet rate average = 0.0479583
	minimum = 0.04 (at node 15)
	maximum = 0.0653333 (at node 3)
Accepted packet rate average = 0.04775
	minimum = 0.0353333 (at node 1)
	maximum = 0.0626667 (at node 13)
Injected flit rate average = 0.0479583
	minimum = 0.04 (at node 15)
	maximum = 0.0653333 (at node 3)
Accepted flit rate average= 0.04775
	minimum = 0.0353333 (at node 1)
	maximum = 0.0626667 (at node 13)
Injected packet length average = 1
Accepted packet length average = 1
Total in-flight flits = 23 (23 measured)
latency change    = 0.023154
throughput change = 0.0039267
Draining all recorded packets ...
Draining remaining packets ...
Time taken is 3065 cycles
Class 0:
Packet latency average = 24.9622
	minimum = 7
	maximum = 118
Network latency average = 24.9622
	minimum = 7
	maximum = 118
Slowest packet = 21256
Flit latency average = 24.9622
	minimum = 7
	maximum = 118
Slowest flit = 21256
Fragmentation average = 0
	minimum = 0
	maximum = 0
Injected packet rate average = 0.048625
	minimum = 0.032 (at node 2)
	maximum = 0.078 (at node 15)
Accepted packet rate average = 0.04625
	minimum = 0.02 (at node 10)
	maximum = 0.066 (at node 2)
Injected flit rate average = 0.048625
	minimum = 0.032 (at node 2)
	maximum = 0.078 (at node 15)
Accepted flit rate average= 0.04625
	minimum = 0.02 (at node 10)
	maximum = 0.066 (at node 2)
Injected packet length average = 1
Accepted packet length average = 1
Total in-flight flits = 19 (0 measured)
latency change    = 1
throughput change = 1
Class 0:
Packet latency average = 25.4564
	minimum = 7
	maximum = 156
Network latency average = 25.4564
	minimum = 7
	maximum = 156
Slowest packet = 21641
Flit latency average = 25.4564
	minimum = 7
	maximum = 156
Slowest flit = 21641
Fragmentation average = 0
	minimum = 0
	maximum = 0
Injected packet rate average = 0.05175
	minimum = 0.045 (at node 1)
	maximum = 0.06 (at node 11)
Accepted packet rate average = 0.0509375
	minimum = 0.037 (at node 10)
	maximum = 0.066 (at node 14)
Injected flit rate average = 0.05175
	minimum = 0.045 (at node 1)
	maximum = 0.06 (at node 11)
Accepted flit rate average= 0.0509375
	minimum = 0.037 (at node 10)
	maximum = 0.066 (at node 14)
Injected packet length average = 1
Accepted packet length average = 1
Total in-flight flits = 13 (0 measured)
latency change    = 0.0194167
throughput change = 0.0920245
Class 0:
Packet latency average = 22.5134
	minimum = 7
	maximum = 72
Network latency average = 22.5134
	minimum = 7
	maximum = 72
Slowest packet = 21941
Flit latency average = 22.5134
	minimum = 7
	maximum = 72
Slowest flit = 21941
Fragmentation average = 0
	minimum = 0
	maximum = 0
Injected packet rate average = 0.051875
	minimum = 0.032 (at node 5)
	maximum = 0.078 (at node 14)
Accepted packet rate average = 0.051375
	minimum = 0.024 (at node 9)
	maximum = 0.064 (at node 8)
Injected flit rate average = 0.051875
	minimum = 0.032 (at node 5)
	maximum = 0.078 (at node 14)
Accepted flit rate average= 0.051375
	minimum = 0.024 (at node 9)
	maximum = 0.064 (at node 8)
Injected packet length average = 1
Accepted packet length average = 1
Total in-flight flits = 17 (0 measured)
latency change    = 0.130725
throughput change = 0.00851582
Warmed up ...Time used is 1500 cycles
Class 0:
Packet latency average = 24.9843
	minimum = 7
	maximum = 113
Network latency average = 24.9843
	minimum = 7
	maximum = 113
Slowest packet = 22400
Flit latency average = 25.1625
	minimum = 7
	maximum = 113
Slowest flit = 22400
Fragmentation average = 0
	minimum = 0
	maximum = 0
Injected packet rate average = 0.05025
	minimum = 0.034 (at node 7)
	maximum = 0.072 (at node 4)
Accepted packet rate average = 0.05
	minimum = 0.038 (at node 9)
	maximum = 0.072 (at node 2)
Injected flit rate average = 0.05025
	minimum = 0.034 (at node 7)
	maximum = 0.072 (at node 4)
Accepted flit rate average= 0.05
	minimum = 0.038 (at node 9)
	maximum = 0.072 (at node 2)
Injected packet length average = 1
Accepted packet length average = 1
Total in-flight flits = 19 (19 measured)
latency change    = 0.0989001
throughput change = 0.0275
Class 0:
Packet latency average = 24.9537
	minimum = 7
	maximum = 113
Network latency average = 24.9537
	minimum = 7
	maximum = 113
Slowest packet = 22400
Flit latency average = 25.0394
	minimum = 7
	maximum = 113
Slowest flit = 22400
Fragmentation average = 0
	minimum = 0
	maximum = 0
Injected packet rate average = 0.0529375
	minimum = 0.037 (at node 9)
	maximum = 0.069 (at node 14)
Accepted packet rate average = 0.052375
	minimum = 0.044 (at node 8)
	maximum = 0.072 (at node 2)
Injected flit rate average = 0.0529375
	minimum = 0.037 (at node 9)
	maximum = 0.069 (at node 14)
Accepted flit rate average= 0.052375
	minimum = 0.044 (at node 8)
	maximum = 0.072 (at node 2)
Injected packet length average = 1
Accepted packet length average = 1
Total in-flight flits = 26 (26 measured)
latency change    = 0.00122704
throughput change = 0.0453461
Class 0:
Packet latency average = 24.4258
	minimum = 7
	maximum = 113
Network latency average = 24.4258
	minimum = 7
	maximum = 113
Slowest packet = 22400
Flit latency average = 24.4907
	minimum = 7
	maximum = 113
Slowest flit = 22400
Fragmentation average = 0
	minimum = 0
	maximum = 0
Injected packet rate average = 0.0519583
	minimum = 0.04 (at node 9)
	maximum = 0.0646667 (at node 14)
Accepted packet rate average = 0.0517917
	minimum = 0.0446667 (at node 1)
	maximum = 0.068 (at node 2)
Injected flit rate average = 0.0519583
	minimum = 0.04 (at node 9)
	maximum = 0.0646667 (at node 14)
Accepted flit rate average= 0.0517917
	minimum = 0.0446667 (at node 1)
	maximum = 0.068 (at node 2)
Injected packet length average = 1
Accepted packet length average = 1
Total in-flight flits = 21 (21 measured)
latency change    = 0.0216141
throughput change = 0.0112631
Class 0:
Packet latency average = 24.1896
	minimum = 7
	maximum = 113
Network latency average = 24.1896
	minimum = 7
	maximum = 113
Slowest packet = 22400
Flit latency average = 24.2404
	minimum = 7
	maximum = 113
Slowest flit = 22400
Fragmentation average = 0
	minimum = 0
	maximum = 0
Injected packet rate average = 0.0521563
	minimum = 0.0405 (at node 13)
	maximum = 0.063 (at node 15)
Accepted packet rate average = 0.052125
	minimum = 0.0435 (at node 1)
	maximum = 0.0625 (at node 2)
Injected flit rate average = 0.0521563
	minimum = 0.0405 (at node 13)
	maximum = 0.063 (at node 15)
Accepted flit rate average= 0.052125
	minimum = 0.0435 (at node 1)
	maximum = 0.0625 (at node 2)
Injected packet length average = 1
Accepted packet length average = 1
Total in-flight flits = 18 (18 measured)
latency change    = 0.00976424
throughput change = 0.00639488
Draining all recorded packets ...
Draining remaining packets ...
Time taken is 3606 cycles
Class 0:
Packet latency average = 24.2545
	minimum = 7
	maximum = 101
Network latency average = 24.2545
	minimum = 7
	maximum = 101
Slowest packet = 24193
Flit latency average = 24.2545
	minimum = 7
	maximum = 101
Slowest flit = 24193
Fragmentation average = 0
	minimum = 0
	maximum = 0
Injected packet rate average = 0.051375
	minimum = 0.032 (at node 5)
	maximum = 0.07 (at node 3)
Accepted packet rate average = 0.048625
	minimum = 0.034 (at node 8)
	maximum = 0.06 (at node 2)
Injected flit rate average = 0.051375
	minimum = 0.032 (at node 5)
	maximum = 0.07 (at node 3)
Accepted flit rate average= 0.048625
	minimum = 0.034 (at node 8)
	maximum = 0.06 (at node 2)
Injected packet length average = 1
Accepted packet length average = 1
Total in-flight flits = 22 (0 measured)
latency change    = 1
throughput change = 1
Class 0:
Packet latency average = 22.9486
	minimum = 7
	maximum = 101
Network latency average = 22.9486
	minimum = 7
	maximum = 101
Slowest packet = 24193
Flit latency average = 22.9486
	minimum = 7
	maximum = 101
Slowest flit = 24193
Fragmentation average = 0
	minimum = 0
	maximum = 0
Injected packet rate average = 0.0498125
	minimum = 0.034 (at node 5)
	maximum = 0.06 (at node 14)
Accepted packet rate average = 0.048625
	minimum = 0.039 (at node 15)
	maximum = 0.058 (at node 6)
Injected flit rate average = 0.0498125
	minimum = 0.034 (at node 5)
	maximum = 0.06 (at node 14)
Accepted flit rate average= 0.048625
	minimum = 0.039 (at node 15)
	maximum = 0.058 (at node 6)
Injected packet length average = 1
Accepted packet length average = 1
Total in-flight flits = 19 (0 measured)
latency change    = 0.056906
throughput change = 0
Class 0:
Packet latency average = 23.0281
	minimum = 7
	maximum = 81
Network latency average = 23.0281
	minimum = 7
	maximum = 81
Slowest packet = 24772
Flit latency average = 23.0281
	minimum = 7
	maximum = 81
Slowest flit = 24772
Fragmentation average = 0
	minimum = 0
	maximum = 0
Injected packet rate average = 0.048375
	minimum = 0.028 (at node 2)
	maximum = 0.078 (at node 9)
Accepted packet rate average = 0.049
	minimum = 0.03 (at node 6)
	maximum = 0.062 (at node 9)
Injected flit rate average = 0.048375
	minimum = 0.028 (at node 2)
	maximum = 0.078 (at node 9)
Accepted flit rate average= 0.049
	minimum = 0.03 (at node 6)
	maximum = 0.062 (at node 9)
Injected packet length average = 1
Accepted packet length average = 1
Total in-flight flits = 14 (0 measured)
latency change    = 0.00345123
throughput change = 0.00765306
Warmed up ...Time used is 1500 cycles
Class 0:
Packet latency average = 22.3743
	minimum = 7
	maximum = 85
Network latency average = 22.3743
	minimum = 7
	maximum = 85
Slowest packet = 25414
Flit latency average = 22.3736
	minimum = 7
	maximum = 85
Slowest flit = 25414
Fragmentation average = 0
	minimum = 0
	maximum = 0
Injected packet rate average = 0.046875
	minimum = 0.028 (at node 7)
	maximum = 0.062 (at node 4)
Accepted packet rate average = 0.0455
	minimum = 0.032 (at node 1)
	maximum = 0.06 (at node 6)
Injected flit rate average = 0.046875
	minimum = 0.028 (at node 7)
	maximum = 0.062 (at node 4)
Accepted flit rate average= 0.0455
	minimum = 0.032 (at node 1)
	maximum = 0.06 (at node 6)
Injected packet length average = 1
Accepted packet length average = 1
Total in-flight flits = 25 (25 measured)
latency change    = 0.02922
throughput change = 0.0769231
Class 0:
Packet latency average = 22.6937
	minimum = 7
	maximum = 85
Network latency average = 22.6937
	minimum = 7
	maximum = 85
Slowest packet = 25414
Flit latency average = 22.6874
	minimum = 7
	maximum = 85
Slowest flit = 25414
Fragmentation average = 0
	minimum = 0
	maximum = 0
Injected packet rate average = 0.0476875
	minimum = 0.029 (at node 7)
	maximum = 0.063 (at node 3)
Accepted packet rate average = 0.0471875
	minimum = 0.034 (at node 1)
	maximum = 0.063 (at node 10)
Injected flit rate average = 0.0476875
	minimum = 0.029 (at node 7)
	maximum = 0.063 (at node 3)
Accepted flit rate average= 0.0471875
	minimum = 0.034 (at node 1)
	maximum = 0.063 (at node 10)
Injected packet length average = 1
Accepted packet length average = 1
Total in-flight flits = 22 (22 measured)
latency change    = 0.0140732
throughput change = 0.0357616
Class 0:
Packet latency average = 22.987
	minimum = 7
	maximum = 88
Network latency average = 22.987
	minimum = 7
	maximum = 88
Slowest packet = 26107
Flit latency average = 22.9794
	minimum = 7
	maximum = 88
Slowest flit = 26107
Fragmentation average = 0
	minimum = 0
	maximum = 0
Injected packet rate average = 0.04875
	minimum = 0.0413333 (at node 0)
	maximum = 0.06 (at node 3)
Accepted packet rate average = 0.0485
	minimum = 0.0386667 (at node 8)
	maximum = 0.0606667 (at node 10)
Injected flit rate average = 0.04875
	minimum = 0.0413333 (at node 0)
	maximum = 0.06 (at node 3)
Accepted flit rate average= 0.0485
	minimum = 0.0386667 (at node 8)
	maximum = 0.0606667 (at node 10)
Injected packet length average = 1
Accepted packet length average = 1
Total in-flight flits = 20 (20 measured)
latency change    = 0.0127594
throughput change = 0.0270619
Class 0:
Packet latency average = 23.6284
	minimum = 7
	maximum = 118
Network latency average = 23.6284
	minimum = 7
	maximum = 118
Slowest packet = 26468
Flit latency average = 23.617
	minimum = 7
	maximum = 118
Slowest flit = 26468
Fragmentation average = 0
	minimum = 0
	maximum = 0
Injected packet rate average = 0.0492187
	minimum = 0.0405 (at node 8)
	maximum = 0.061 (at node 3)
Accepted packet rate average = 0.049125
	minimum = 0.0375 (at node 13)
	maximum = 0.0565 (at node 2)
Injected flit rate average = 0.0492187
	minimum = 0.0405 (at node 8)
	maximum = 0.061 (at node 3)
Accepted flit rate average= 0.049125
	minimum = 0.0375 (at node 13)
	maximum = 0.0565 (at node 2)
Injected packet length average = 1
Accepted packet length average = 1
Total in-flight flits = 17 (17 measured)
latency change    = 0.0271459
throughput change = 0.0127226
Draining all recorded packets ...
Draining remaining packets ...
Time taken is 3621 cycles
Class 0:
Packet latency average = 21.9434
	minimum = 7
	maximum = 70
Network latency average = 21.9434
	minimum = 7
	maximum = 70
Slowest packet = 26848
Flit latency average = 21.9434
	minimum = 7
	maximum = 70
Slowest flit = 26848
Fragmentation average = 0
	minimum = 0
	maximum = 0
Injected packet rate average = 0.051125
	minimum = 0.038 (at node 1)
	maximum = 0.066 (at node 2)
Accepted packet rate average = 0.048625
	minimum = 0.02 (at node 7)
	maximum = 0.058 (at node 1)
Injected flit rate average = 0.051125
	minimum = 0.038 (at node 1)
	maximum = 0.066 (at node 2)
Accepted flit rate average= 0.048625
	minimum = 0.02 (at node 7)
	maximum = 0.058 (at node 1)
Injected packet length average = 1
Accepted packet length average = 1
Total in-flight flits = 20 (0 measured)
latency change    = 1
throughput change = 1
Class 0:
Packet latency average = 22.7296
	minimum = 7
	maximum = 80
Network latency average = 22.7296
	minimum = 7
	maximum = 80
Slowest packet = 27280
Flit latency average = 22.7296
	minimum = 7
	maximum = 80
Slowest flit = 27280
Fragmentation average = 0
	minimum = 0
	maximum = 0
Injected packet rate average = 0.0476875
	minimum = 0.039 (at node 1)
	maximum = 0.058 (at node 0)
Accepted packet rate average = 0.0466875
	minimum = 0.036 (at node 7)
	maximum = 0.055 (at node 0)
Injected flit rate average = 0.0476875
	minimum = 0.039 (at node 1)
	maximum = 0.058 (at node 0)
Accepted flit rate average= 0.0466875
	minimum = 0.036 (at node 7)
	maximum = 0.055 (at node 0)
Injected packet length average = 1
Accepted packet length average = 1
Total in-flight flits = 16 (0 measured)
latency change    = 0.0345867
throughput change = 0.0414993
Class 0:
Packet latency average = 24.0431
	minimum = 7
	maximum = 102
Network latency average = 24.0431
	minimum = 7
	maximum = 102
Slowest packet = 27797
Flit latency average = 24.0431
	minimum = 7
	maximum = 102
Slowest flit = 27797
Fragmentation average = 0
	minimum = 0
	maximum = 0
Injected packet rate average = 0.05225
	minimum = 0.026 (at node 3)
	maximum = 0.072 (at node 6)
Accepted packet rate average = 0.05225
	minimum = 0.032 (at node 9)
	maximum = 0.066 (at node 6)
Injected flit rate average = 0.05225
	minimum = 0.026 (at node 3)
	maximum = 0.072 (at node 6)
Accepted flit rate average= 0.05225
	minimum = 0.032 (at node 9)
	maximum = 0.066 (at node 6)
Injected packet length average = 1
Accepted packet length average = 1
Total in-flight flits = 16 (0 measured)
latency change    = 0.0546302
throughput change = 0.106459
Warmed up ...Time used is 1500 cycles
Class 0:
Packet latency average = 23.3203
	minimum = 7
	maximum = 82
Network latency average = 23.3125
	minimum = 7
	maximum = 82
Slowest packet = 28000
Flit latency average = 23.3875
	minimum = 7
	maximum = 82
Slowest flit = 28000
Fragmentation average = 0
	minimum = 0
	maximum = 0
Injected packet rate average = 0.051
	minimum = 0.034 (at node 11)
	maximum = 0.07 (at node 10)
Accepted packet rate average = 0.05
	minimum = 0.022 (at node 2)
	maximum = 0.072 (at node 14)
Injected flit rate average = 0.051
	minimum = 0.034 (at node 11)
	maximum = 0.07 (at node 10)
Accepted flit rate average= 0.05
	minimum = 0.022 (at node 2)
	maximum = 0.072 (at node 14)
Injected packet length average = 1
Accepted packet length average = 1
Total in-flight flits = 24 (24 measured)
latency change    = 0.0309923
throughput change = 0.045
Class 0:
Packet latency average = 23.4891
	minimum = 7
	maximum = 92
Network latency average = 23.4853
	minimum = 7
	maximum = 92
Slowest packet = 28645
Flit latency average = 23.5194
	minimum = 7
	maximum = 92
Slowest flit = 28645
Fragmentation average = 0
	minimum = 0
	maximum = 0
Injected packet rate average = 0.049875
	minimum = 0.035 (at node 14)
	maximum = 0.06 (at node 15)
Accepted packet rate average = 0.0498125
	minimum = 0.03 (at node 2)
	maximum = 0.059 (at node 1)
Injected flit rate average = 0.049875
	minimum = 0.035 (at node 14)
	maximum = 0.06 (at node 15)
Accepted flit rate average= 0.0498125
	minimum = 0.03 (at node 2)
	maximum = 0.059 (at node 1)
Injected packet length average = 1
Accepted packet length average = 1
Total in-flight flits = 17 (17 measured)
latency change    = 0.00718648
throughput change = 0.00376412
Class 0:
Packet latency average = 23.8154
	minimum = 7
	maximum = 132
Network latency average = 23.8129
	minimum = 7
	maximum = 132
Slowest packet = 29053
Flit latency average = 23.8311
	minimum = 7
	maximum = 132
Slowest flit = 29053
Fragmentation average = 0
	minimum = 0
	maximum = 0
Injected packet rate average = 0.0502083
	minimum = 0.038 (at node 14)
	maximum = 0.0586667 (at node 3)
Accepted packet rate average = 0.0503333
	minimum = 0.0333333 (at node 2)
	maximum = 0.0646667 (at node 6)
Injected flit rate average = 0.0502083
	minimum = 0.038 (at node 14)
	maximum = 0.0586667 (at node 3)
Accepted flit rate average= 0.0503333
	minimum = 0.0333333 (at node 2)
	maximum = 0.0646667 (at node 6)
Injected packet length average = 1
Accepted packet length average = 1
Total in-flight flits = 13 (13 measured)
latency change    = 0.013702
throughput change = 0.0103477
Draining all recorded packets ...
Draining remaining packets ...
Time taken is 3066 cycles
Class 0:
Packet latency average = 22.4344
	minimum = 7
	maximum = 83
Network latency average = 22.4344
	minimum = 7
	maximum = 83
Slowest packet = 29263
Flit latency average = 22.4344
	minimum = 7
	maximum = 83
Slowest flit = 29263
Fragmentation average = 0
	minimum = 0
	maximum = 0
Injected packet rate average = 0.045625
	minimum = 0.028 (at node 6)
	maximum = 0.064 (at node 4)
Accepted packet rate average = 0.042875
	minimum = 0.03 (at node 5)
	maximum = 0.054 (at node 2)
Injected flit rate average = 0.045625
	minimum = 0.028 (at node 6)
	maximum = 0.064 (at node 4)
Accepted flit rate average= 0.042875
	minimum = 0.03 (at node 5)
	maximum = 0.054 (at node 2)
Injected packet length average = 1
Accepted packet length average = 1
Total in-flight flits = 22 (0 measured)
latency change    = 1
throughput change = 1
Class 0:
Packet latency average = 22.9264
	minimum = 7
	maximum = 119
Network latency average = 22.9264
	minimum = 7
	maximum = 119
Slowest packet = 29609
Flit latency average = 22.9264
	minimum = 7
	maximum = 119
Slowest flit = 29609
Fragmentation average = 0
	minimum = 0
	maximum = 0
Injected packet rate average = 0.047875
	minimum = 0.034 (at node 2)
	maximum = 0.059 (at node 14)
Accepted packet rate average = 0.0466875
	minimum = 0.039 (at node 3)
	maximum = 0.058 (at node 11)
Injected flit rate average = 0.047875
	minimum = 0.034 (at node 2)
	maximum = 0.059 (at node 14)
Accepted flit rate average= 0.0466875
	minimum = 0.039 (at node 3)
	maximum = 0.058 (at node 11)
Injected packet length average = 1
Accepted packet length average = 1
Total in-flight flits = 19 (0 measured)
latency change    = 0.0214587
throughput change = 0.08166
Class 0:
Packet latency average = 23.4188
	minimum = 7
	maximum = 87
Network latency average = 23.4188
	minimum = 7
	maximum = 87
Slowest packet = 30036
Flit latency average = 23.4188
	minimum = 7
	maximum = 87
Slowest flit = 30036
Fragmentation average = 0
	minimum = 0
	maximum = 0
Injected packet rate average = 0.048625
	minimum = 0.036 (at node 5)
	maximum = 0.066 (at node 7)
Accepted packet rate average = 0.04925
	minimum = 0.04 (at node 5)
	maximum = 0.064 (at node 10)
Injected flit rate average = 0.048625
	minimum = 0.036 (at node 5)
	maximum = 0.066 (at node 7)
Accepted flit rate average= 0.04925
	minimum = 0.04 (at node 5)
	maximum = 0.064 (at node 10)
Injected packet length average = 1
Accepted packet length average = 1
Total in-flight flits = 14 (0 measured)
latency change    = 0.0210263
throughput change = 0.0520305
Warmed up ...Time used is 1500 cycles
Class 0:
Packet latency average = 28.0787
	minimum = 7
	maximum = 188
Network latency average = 28.0787
	minimum = 7
	maximum = 188
Slowest packet = 30391
Flit latency average = 28.1378
	minimum = 7
	maximum = 188
Slowest flit = 30391
Fragmentation average = 0
	minimum = 0
	maximum = 0
Injected packet rate average = 0.046375
	minimum = 0.028 (at node 1)
	maximum = 0.062 (at node 15)
Accepted packet rate average = 0.04625
	minimum = 0.034 (at node 6)
	maximum = 0.072 (at node 7)
Injected flit rate average = 0.046375
	minimum = 0.028 (at node 1)
	maximum = 0.062 (at node 15)
Accepted flit rate average= 0.04625
	minimum = 0.034 (at node 6)
	maximum = 0.072 (at node 7)
Injected packet length average = 1
Accepted packet length average = 1
Total in-flight flits = 15 (15 measured)
latency change    = 0.165958
throughput change = 0.0648649
Class 0:
Packet latency average = 25.4463
	minimum = 7
	maximum = 188
Network latency average = 25.4463
	minimum = 7
	maximum = 188
Slowest packet = 30391
Flit latency average = 25.5257
	minimum = 7
	maximum = 188
Slowest flit = 30391
Fragmentation average = 0
	minimum = 0
	maximum = 0
Injected packet rate average = 0.0465
	minimum = 0.034 (at node 10)
	maximum = 0.058 (at node 6)
Accepted packet rate average = 0.04625
	minimum = 0.039 (at node 3)
	maximum = 0.056 (at node 7)
Injected flit rate average = 0.0465
	minimum = 0.034 (at node 10)
	maximum = 0.058 (at node 6)
Accepted flit rate average= 0.04625
	minimum = 0.039 (at node 3)
	maximum = 0.056 (at node 7)
Injected packet length average = 1
Accepted packet length average = 1
Total in-flight flits = 18 (18 measured)
latency change    = 0.103448
throughput change = 0
Class 0:
Packet latency average = 24.4897
	minimum = 7
	maximum = 188
Network latency average = 24.4897
	minimum = 7
	maximum = 188
Slowest packet = 30391
Flit latency average = 24.5535
	minimum = 7
	maximum = 188
Slowest flit = 30391
Fragmentation average = 0
	minimum = 0
	maximum = 0
Injected packet rate average = 0.0477083
	minimum = 0.034 (at node 14)
	maximum = 0.0593333 (at node 6)
Accepted packet rate average = 0.047125
	minimum = 0.0386667 (at node 6)
	maximum = 0.056 (at node 11)
Injected flit rate average = 0.0477083
	minimum = 0.034 (at node 14)
	maximum = 0.0593333 (at node 6)
Accepted flit rate average= 0.047125
	minimum = 0.0386667 (at node 6)
	maximum = 0.056 (at node 11)
Injected packet length average = 1
Accepted packet length average = 1
Total in-flight flits = 28 (28 measured)
latency change    = 0.0390603
throughput change = 0.0185676
Class 0:
Packet latency average = 24.2784
	minimum = 7
	maximum = 188
Network latency average = 24.2784
	minimum = 7
	maximum = 188
Slowest packet = 30391
Flit latency average = 24.3271
	minimum = 7
	maximum = 188
Slowest flit = 30391
Fragmentation average = 0
	minimum = 0
	maximum = 0
Injected packet rate average = 0.0485937
	minimum = 0.0385 (at node 13)
	maximum = 0.0565 (at node 6)
Accepted packet rate average = 0.04825
	minimum = 0.0425 (at node 14)
	maximum = 0.0555 (at node 7)
Injected flit rate average = 0.0485937
	minimum = 0.0385 (at node 13)
	maximum = 0.0565 (at node 6)
Accepted flit rate average= 0.04825
	minimum = 0.0425 (at node 14)
	maximum = 0.0555 (at node 7)
Injected packet length average = 1
Accepted packet length average = 1
Total in-flight flits = 25 (25 measured)
latency change    = 0.00870209
throughput change = 0.0233161
Class 0:
Packet latency average = 24.1663
	minimum = 7
	maximum = 188
Network latency average = 24.1663
	minimum = 7
	maximum = 188
Slowest packet = 30391
Flit latency average = 24.2059
	minimum = 7
	maximum = 188
Slowest flit = 30391
Fragmentation average = 0
	minimum = 0
	maximum = 0
Injected packet rate average = 0.04855
	minimum = 0.0372 (at node 13)
	maximum = 0.0564 (at node 6)
Accepted packet rate average = 0.04845
	minimum = 0.0412 (at node 14)
	maximum = 0.0556 (at node 7)
Injected flit rate average = 0.04855
	minimum = 0.0372 (at node 13)
	maximum = 0.0564 (at node 6)
Accepted flit rate average= 0.04845
	minimum = 0.0412 (at node 14)
	maximum = 0.0556 (at node 7)
Injected packet length average = 1
Accepted packet length average = 1
Total in-flight flits = 18 (18 measured)
latency change    = 0.00463915
throughput change = 0.00412797
Draining all recorded packets ...
Draining remaining packets ...
Time taken is 4108 cycles
Class 0:
Packet latency average = 25.761
	minimum = 7
	maximum = 123
Network latency average = 25.761
	minimum = 7
	maximum = 123
Slowest packet = 32460
Flit latency average = 25.761
	minimum = 7
	maximum = 123
Slowest flit = 32460
Fragmentation average = 0
	minimum = 0
	maximum = 0
Injected packet rate average = 0.052875
	minimum = 0.042 (at node 11)
	maximum = 0.064 (at node 9)
Accepted packet rate average = 0.05125
	minimum = 0.032 (at node 11)
	maximum = 0.068 (at node 9)
Injected flit rate average = 0.052875
	minimum = 0.042 (at node 11)
	maximum = 0.064 (at node 9)
Accepted flit rate average= 0.05125
	minimum = 0.032 (at node 11)
	maximum = 0.068 (at node 9)
Injected packet length average = 1
Accepted packet length average = 1
Total in-flight flits = 13 (0 measured)
latency change    = 1
throughput change = 1
Class 0:
Packet latency average = 24.7542
	minimum = 7
	maximum = 123
Network latency average = 24.7542
	minimum = 7
	maximum = 123
Slowest packet = 32460
Flit latency average = 24.7542
	minimum = 7
	maximum = 123
Slowest flit = 32460
Fragmentation average = 0
	minimum = 0
	maximum = 0
Injected packet rate average = 0.049875
	minimum = 0.04 (at node 13)
	maximum = 0.063 (at node 15)
Accepted packet rate average = 0.0485625
	minimum = 0.038 (at node 6)
	maximum = 0.06 (at node 5)
Injected flit rate average = 0.049875
	minimum = 0.04 (at node 13)
	maximum = 0.063 (at node 15)
Accepted flit rate average= 0.0485625
	minimum = 0.038 (at node 6)
	maximum = 0.06 (at node 5)
Injected packet length average = 1
Accepted packet length average = 1
Total in-flight flits = 21 (0 measured)
latency change    = 0.0406716
throughput change = 0.0553411
Class 0:
Packet latency average = 24.4632
	minimum = 7
	maximum = 97
Network latency average = 24.4632
	minimum = 7
	maximum = 97
Slowest packet = 33080
Flit latency average = 24.4632
	minimum = 7
	maximum = 97
Slowest flit = 33080
Fragmentation average = 0
	minimum = 0
	maximum = 0
Injected packet rate average = 0.053
	minimum = 0.036 (at node 2)
	maximum = 0.082 (at node 6)
Accepted packet rate average = 0.052625
	minimum = 0.036 (at node 8)
	maximum = 0.08 (at node 14)
Injected flit rate average = 0.053
	minimum = 0.036 (at node 2)
	maximum = 0.082 (at node 6)
Accepted flit rate average= 0.052625
	minimum = 0.036 (at node 8)
	maximum = 0.08 (at node 14)
Injected packet length average = 1
Accepted packet length average = 1
Total in-flight flits = 24 (0 measured)
latency change    = 0.0118954
throughput change = 0.0771971
Warmed up ...Time used is 1500 cycles
Class 0:
Packet latency average = 22.6345
	minimum = 7
	maximum = 75
Network latency average = 22.6345
	minimum = 7
	maximum = 75
Slowest packet = 33649
Flit latency average = 22.9016
	minimum = 7
	maximum = 75
Slowest flit = 33649
Fragmentation average = 0
	minimum = 0
	maximum = 0
Injected packet rate average = 0.044625
	minimum = 0.032 (at node 5)
	maximum = 0.054 (at node 2)
Accepted packet rate average = 0.04575
	minimum = 0.038 (at node 7)
	maximum = 0.056 (at node 5)
Injected flit rate average = 0.044625
	minimum = 0.032 (at node 5)
	maximum = 0.054 (at node 2)
Accepted flit rate average= 0.04575
	minimum = 0.038 (at node 7)
	maximum = 0.056 (at node 5)
Injected packet length average = 1
Accepted packet length average = 1
Total in-flight flits = 15 (15 measured)
latency change    = 0.0807917
throughput change = 0.150273
Class 0:
Packet latency average = 22.4318
	minimum = 7
	maximum = 75
Network latency average = 22.4318
	minimum = 7
	maximum = 75
Slowest packet = 33649
Flit latency average = 22.5728
	minimum = 7
	maximum = 75
Slowest flit = 33649
Fragmentation average = 0
	minimum = 0
	maximum = 0
Injected packet rate average = 0.045125
	minimum = 0.034 (at node 12)
	maximum = 0.054 (at node 2)
Accepted packet rate average = 0.0455
	minimum = 0.035 (at node 6)
	maximum = 0.056 (at node 14)
Injected flit rate average = 0.045125
	minimum = 0.034 (at node 12)
	maximum = 0.054 (at node 2)
Accepted flit rate average= 0.0455
	minimum = 0.035 (at node 6)
	maximum = 0.056 (at node 14)
Injected packet length average = 1
Accepted packet length average = 1
Total in-flight flits = 18 (18 measured)
latency change    = 0.00903559
throughput change = 0.00549451
Class 0:
Packet latency average = 23.0702
	minimum = 7
	maximum = 133
Network latency average = 23.0702
	minimum = 7
	maximum = 133
Slowest packet = 34529
Flit latency average = 23.1462
	minimum = 7
	maximum = 133
Slowest flit = 34529
Fragmentation average = 0
	minimum = 0
	maximum = 0
Injected packet rate average = 0.047625
	minimum = 0.0406667 (at node 12)
	maximum = 0.054 (at node 10)
Accepted packet rate average = 0.047875
	minimum = 0.0426667 (at node 1)
	maximum = 0.0553333 (at node 10)
Injected flit rate average = 0.047625
	minimum = 0.0406667 (at node 12)
	maximum = 0.054 (at node 10)
Accepted flit rate average= 0.047875
	minimum = 0.0426667 (at node 1)
	maximum = 0.0553333 (at node 10)
Injected packet length average = 1
Accepted packet length average = 1
Total in-flight flits = 18 (18 measured)
latency change    = 0.0276722
throughput change = 0.0496084
Class 0:
Packet latency average = 23.4922
	minimum = 7
	maximum = 133
Network latency average = 23.4922
	minimum = 7
	maximum = 133
Slowest packet = 34529
Flit latency average = 23.5415
	minimum = 7
	maximum = 133
Slowest flit = 34529
Fragmentation average = 0
	minimum = 0
	maximum = 0
Injected packet rate average = 0.0486875
	minimum = 0.0435 (at node 12)
	maximum = 0.059 (at node 4)
Accepted packet rate average = 0.0489375
	minimum = 0.0405 (at node 6)
	maximum = 0.057 (at node 8)
Injected flit rate average = 0.0486875
	minimum = 0.0435 (at node 12)
	maximum = 0.059 (at node 4)
Accepted flit rate average= 0.0489375
	minimum = 0.0405 (at node 6)
	maximum = 0.057 (at node 8)
Injected packet length average = 1
Accepted packet length average = 1
Total in-flight flits = 16 (16 measured)
latency change    = 0.0179632
throughput change = 0.0217114
Draining all recorded packets ...
Draining remaining packets ...
Time taken is 3563 cycles
Class 0:
Packet latency average = 24.3657
	minimum = 7
	maximum = 138
Network latency average = 24.3657
	minimum = 7
	maximum = 138
Slowest packet = 35210
Flit latency average = 24.3657
	minimum = 7
	maximum = 138
Slowest flit = 35210
Fragmentation average = 0
	minimum = 0
	maximum = 0
Injected packet rate average = 0.0515
	minimum = 0.036 (at node 3)
	maximum = 0.064 (at node 4)
Accepted packet rate average = 0.048875
	minimum = 0.034 (at node 1)
	maximum = 0.06 (at node 2)
Injected flit rate average = 0.0515
	minimum = 0.036 (at node 3)
	maximum = 0.064 (at node 4)
Accepted flit rate average= 0.048875
	minimum = 0.034 (at node 1)
	maximum = 0.06 (at node 2)
Injected packet length average = 1
Accepted packet length average = 1
Total in-flight flits = 21 (0 measured)
latency change    = 1
throughput change = 1
Class 0:
Packet latency average = 24.0926
	minimum = 7
	maximum = 138
Network latency average = 24.0926
	minimum = 7
	maximum = 138
Slowest packet = 35210
Flit latency average = 24.0926
	minimum = 7
	maximum = 138
Slowest flit = 35210
Fragmentation average = 0
	minimum = 0
	maximum = 0
Injected packet rate average = 0.051875
	minimum = 0.039 (at node 8)
	maximum = 0.064 (at node 15)
Accepted packet rate average = 0.050625
	minimum = 0.043 (at node 4)
	maximum = 0.059 (at node 15)
Injected flit rate average = 0.051875
	minimum = 0.039 (at node 8)
	maximum = 0.064 (at node 15)
Accepted flit rate average= 0.050625
	minimum = 0.043 (at node 4)
	maximum = 0.059 (at node 15)
Injected packet length average = 1
Accepted packet length average = 1
Total in-flight flits = 20 (0 measured)
latency change    = 0.0113369
throughput change = 0.0345679
Class 0:
Packet latency average = 23.8215
	minimum = 7
	maximum = 105
Network latency average = 23.8215
	minimum = 7
	maximum = 105
Slowest packet = 35931
Flit latency average = 23.8215
	minimum = 7
	maximum = 105
Slowest flit = 35931
Fragmentation average = 0
	minimum = 0
	maximum = 0
Injected packet rate average = 0.051
	minimum = 0.032 (at node 13)
	maximum = 0.07 (at node 12)
Accepted packet rate average = 0.051125
	minimum = 0.04 (at node 8)
	maximum = 0.078 (at node 3)
Injected flit rate average = 0.051
	minimum = 0.032 (at node 13)
	maximum = 0.07 (at node 12)
Accepted flit rate average= 0.051125
	minimum = 0.04 (at node 8)
	maximum = 0.078 (at node 3)
Injected packet length average = 1
Accepted packet length average = 1
Total in-flight flits = 19 (0 measured)
latency change    = 0.0113795
throughput change = 0.00977995
Warmed up ...Time used is 1500 cycles
Class 0:
Packet latency average = 22.366
	minimum = 7
	maximum = 79
Network latency average = 22.366
	minimum = 7
	maximum = 79
Slowest packet = 36650
Flit latency average = 22.6869
	minimum = 7
	maximum = 79
Slowest flit = 36650
Fragmentation average = 0
	minimum = 0
	maximum = 0
Injected packet rate average = 0.048875
	minimum = 0.032 (at node 11)
	maximum = 0.058 (at node 15)
Accepted packet rate average = 0.0495
	minimum = 0.042 (at node 15)
	maximum = 0.058 (at node 0)
Injected flit rate average = 0.048875
	minimum = 0.032 (at node 11)
	maximum = 0.058 (at node 15)
Accepted flit rate average= 0.0495
	minimum = 0.042 (at node 15)
	maximum = 0.058 (at node 0)
Injected packet length average = 1
Accepted packet length average = 1
Total in-flight flits = 14 (14 measured)
latency change    = 0.0650749
throughput change = 0.0328283
Class 0:
Packet latency average = 22.5952
	minimum = 7
	maximum = 84
Network latency average = 22.5952
	minimum = 7
	maximum = 84
Slowest packet = 36746
Flit latency average = 22.7454
	minimum = 7
	maximum = 84
Slowest flit = 36746
Fragmentation average = 0
	minimum = 0
	maximum = 0
Injected packet rate average = 0.051125
	minimum = 0.039 (at node 11)
	maximum = 0.063 (at node 14)
Accepted packet rate average = 0.0510625
	minimum = 0.039 (at node 7)
	maximum = 0.059 (at node 0)
Injected flit rate average = 0.051125
	minimum = 0.039 (at node 11)
	maximum = 0.063 (at node 14)
Accepted flit rate average= 0.0510625
	minimum = 0.039 (at node 7)
	maximum = 0.059 (at node 0)
Injected packet length average = 1
Accepted packet length average = 1
Total in-flight flits = 20 (20 measured)
latency change    = 0.0101433
[...]
	minimum = 7
	maximum = 77
Slowest packet = 137700
Flit latency average = 21.6588
	minimum = 7
	maximum = 77
Slowest flit = 137700
Fragmentation average = 0
	minimum = 0
	maximum = 0
Injected packet rate average = 0.0495
	minimum = 0.032 (at node 0)
	maximum = 0.062 (at node 7)
Accepted packet rate average = 0.047625
	minimum = 0.024 (at node 12)
	maximum = 0.064 (at node 0)
Injected flit rate average = 0.0495
	minimum = 0.032 (at node 0)
	maximum = 0.062 (at node 7)
Accepted flit rate average= 0.047625
	minimum = 0.024 (at node 12)
	maximum = 0.064 (at node 0)
Injected packet length average = 1
Accepted packet length average = 1
Total in-flight flits = 15 (0 measured)
latency change    = 1
throughput change = 1
Class 0:
Packet latency average = 21.7992
	minimum = 7
	maximum = 77
Network latency average = 21.7992
	minimum = 7
	maximum = 77
Slowest packet = 137700
Flit latency average = 21.7992
	minimum = 7
	maximum = 77
Slowest flit = 137700
Fragmentation average = 0
	minimum = 0
	maximum = 0
Injected packet rate average = 0.05075
	minimum = 0.035 (at node 0)
	maximum = 0.062 (at node 13)
Accepted packet rate average = 0.0495
	minimum = 0.038 (at node 12)
	maximum = 0.062 (at node 1)
Injected flit rate average = 0.05075
	minimum = 0.035 (at node 0)
	maximum = 0.062 (at node 13)
Accepted flit rate average= 0.0495
	minimum = 0.038 (at node 12)
	maximum = 0.062 (at node 1)
Injected packet length average = 1
Accepted packet length average = 1
Total in-flight flits = 20 (0 measured)
latency change    = 0.00644287
throughput change = 0.0378788
Class 0:
Packet latency average = 23.4951
	minimum = 7
	maximum = 76
Network latency average = 23.4951
	minimum = 7
	maximum = 76
Slowest packet = 138176
Flit latency average = 23.4951
	minimum = 7
	maximum = 76
Slowest flit = 138176
Fragmentation average = 0
	minimum = 0
	maximum = 0
Injected packet rate average = 0.050125
	minimum = 0.036 (at node 6)
	maximum = 0.06 (at node 2)
Accepted packet rate average = 0.05075
	minimum = 0.04 (at node 14)
	maximum = 0.062 (at node 6)
Injected flit rate average = 0.050125
	minimum = 0.036 (at node 6)
	maximum = 0.06 (at node 2)
Accepted flit rate average= 0.05075
	minimum = 0.04 (at node 14)
	maximum = 0.062 (at node 6)
Injected packet length average = 1
Accepted packet length average = 1
Total in-flight flits = 15 (0 measured)
latency change    = 0.0721782
throughput change = 0.0246305
Warmed up ...Time used is 1500 cycles
Class 0:
Packet latency average = 22.7794
	minimum = 7
	maximum = 61
Network latency average = 22.7794
	minimum = 7
	maximum = 61
Slowest packet = 138775
Flit latency average = 22.8647
	minimum = 7
	maximum = 61
Slowest flit = 138775
Fragmentation average = 0
	minimum = 0
	maximum = 0
Injected packet rate average = 0.05125
	minimum = 0.04 (at node 1)
	maximum = 0.066 (at node 8)
Accepted packet rate average = 0.05175
	minimum = 0.028 (at node 8)
	maximum = 0.074 (at node 6)
Injected flit rate average = 0.05125
	minimum = 0.04 (at node 1)
	maximum = 0.066 (at node 8)
Accepted flit rate average= 0.05175
	minimum = 0.028 (at node 8)
	maximum = 0.074 (at node 6)
Injected packet length average = 1
Accepted packet length average = 1
Total in-flight flits = 11 (11 measured)
latency change    = 0.0314154
throughput change = 0.0193237
Class 0:
Packet latency average = 22.9921
	minimum = 7
	maximum = 71
Network latency average = 22.9921
	minimum = 7
	maximum = 71
Slowest packet = 139006
Flit latency average = 23.0336
	minimum = 7
	maximum = 71
Slowest flit = 139006
Fragmentation average = 0
	minimum = 0
	maximum = 0
Injected packet rate average = 0.0486875
	minimum = 0.039 (at node 6)
	maximum = 0.057 (at node 10)
Accepted packet rate average = 0.0483125
	minimum = 0.039 (at node 14)
	maximum = 0.059 (at node 1)
Injected flit rate average = 0.0486875
	minimum = 0.039 (at node 6)
	maximum = 0.057 (at node 10)
Accepted flit rate average= 0.0483125
	minimum = 0.039 (at node 14)
	maximum = 0.059 (at node 1)
Injected packet length average = 1
Accepted packet length average = 1
Total in-flight flits = 21 (21 measured)
latency change    = 0.00924822
throughput change = 0.0711514
Class 0:
Packet latency average = 23.2526
	minimum = 7
	maximum = 98
Network latency average = 23.2526
	minimum = 7
	maximum = 98
Slowest packet = 139496
Flit latency average = 23.2767
	minimum = 7
	maximum = 98
Slowest flit = 139496
Fragmentation average = 0
	minimum = 0
	maximum = 0
Injected packet rate average = 0.048875
	minimum = 0.038 (at node 2)
	maximum = 0.0566667 (at node 9)
Accepted packet rate average = 0.0487917
	minimum = 0.0393333 (at node 12)
	maximum = 0.058 (at node 2)
Injected flit rate average = 0.048875
	minimum = 0.038 (at node 2)
	maximum = 0.0566667 (at node 9)
Accepted flit rate average= 0.0487917
	minimum = 0.0393333 (at node 12)
	maximum = 0.058 (at node 2)
Injected packet length average = 1
Accepted packet length average = 1
Total in-flight flits = 17 (17 measured)
latency change    = 0.0112035
throughput change = 0.00982067
Class 0:
Packet latency average = 22.9571
	minimum = 7
	maximum = 98
Network latency average = 22.9571
	minimum = 7
	maximum = 98
Slowest packet = 139496
Flit latency average = 22.9781
	minimum = 7
	maximum = 98
Slowest flit = 139496
Fragmentation average = 0
	minimum = 0
	maximum = 0
Injected packet rate average = 0.0485937
	minimum = 0.04 (at node 6)
	maximum = 0.055 (at node 3)
Accepted packet rate average = 0.0485625
	minimum = 0.0385 (at node 12)
	maximum = 0.058 (at node 2)
Injected flit rate average = 0.0485937
	minimum = 0.04 (at node 6)
	maximum = 0.055 (at node 3)
Accepted flit rate average= 0.0485625
	minimum = 0.0385 (at node 12)
	maximum = 0.058 (at node 2)
Injected packet length average = 1
Accepted packet length average = 1
Total in-flight flits = 16 (16 measured)
latency change    = 0.012871
throughput change = 0.004719
Class 0:
Packet latency average = 22.8889
	minimum = 7
	maximum = 98
Network latency average = 22.8889
	minimum = 7
	maximum = 98
Slowest packet = 139496
Flit latency average = 22.9061
	minimum = 7
	maximum = 98
Slowest flit = 139496
Fragmentation average = 0
	minimum = 0
	maximum = 0
Injected packet rate average = 0.0491
	minimum = 0.0404 (at node 2)
	maximum = 0.0552 (at node 15)
Accepted packet rate average = 0.049
	minimum = 0.042 (at node 12)
	maximum = 0.056 (at node 2)
Injected flit rate average = 0.0491
	minimum = 0.0404 (at node 2)
	maximum = 0.0552 (at node 15)
Accepted flit rate average= 0.049
	minimum = 0.042 (at node 12)
	maximum = 0.056 (at node 2)
Injected packet length average = 1
Accepted packet length average = 1
Total in-flight flits = 19 (19 measured)
latency change    = 0.00297825
throughput change = 0.00892857
Draining all recorded packets ...
Draining remaining packets ...
Time taken is 4069 cycles
Class 0:
Packet latency average = 22.9649
	minimum = 7
	maximum = 97
Network latency average = 22.9649
	minimum = 7
	maximum = 97
Slowest packet = 140703
Flit latency average = 22.9649
	minimum = 7
	maximum = 97
Slowest flit = 140703
Fragmentation average = 0
	minimum = 0
	maximum = 0
Injected packet rate average = 0.048125
	minimum = 0.026 (at node 9)
	maximum = 0.064 (at node 13)
Accepted packet rate average = 0.04625
	minimum = 0.032 (at node 13)
	maximum = 0.068 (at node 15)
Injected flit rate average = 0.048125
	minimum = 0.026 (at node 9)
	maximum = 0.064 (at node 13)
Accepted flit rate average= 0.04625
	minimum = 0.032 (at node 13)
	maximum = 0.068 (at node 15)
Injected packet length average = 1
Accepted packet length average = 1
Total in-flight flits = 15 (0 measured)
latency change    = 1
throughput change = 1
Class 0:
Packet latency average = 22.4706
	minimum = 7
	maximum = 97
Network latency average = 22.4706
	minimum = 7
	maximum = 97
Slowest packet = 140703
Flit latency average = 22.4706
	minimum = 7
	maximum = 97
Slowest flit = 140703
Fragmentation average = 0
	minimum = 0
	maximum = 0
Injected packet rate average = 0.0490625
	minimum = 0.038 (at node 4)
	maximum = 0.059 (at node 13)
Accepted packet rate average = 0.0478125
	minimum = 0.035 (at node 13)
	maximum = 0.063 (at node 15)
Injected flit rate average = 0.0490625
	minimum = 0.038 (at node 4)
	maximum = 0.059 (at node 13)
Accepted flit rate average= 0.0478125
	minimum = 0.035 (at node 13)
	maximum = 0.063 (at node 15)
Injected packet length average = 1
Accepted packet length average = 1
Total in-flight flits = 20 (0 measured)
latency change    = 0.0219966
throughput change = 0.0326797
Class 0:
Packet latency average = 22.953
	minimum = 7
	maximum = 91
Network latency average = 22.953
	minimum = 7
	maximum = 91
Slowest packet = 141607
Flit latency average = 22.953
	minimum = 7
	maximum = 91
Slowest flit = 141607
Fragmentation average = 0
	minimum = 0
	maximum = 0
Injected packet rate average = 0.05025
	minimum = 0.04 (at node 1)
	maximum = 0.066 (at node 14)
Accepted packet rate average = 0.0505
	minimum = 0.036 (at node 0)
	maximum = 0.076 (at node 6)
Injected flit rate average = 0.05025
	minimum = 0.04 (at node 1)
	maximum = 0.066 (at node 14)
Accepted flit rate average= 0.0505
	minimum = 0.036 (at node 0)
	maximum = 0.076 (at node 6)
Injected packet length average = 1
Accepted packet length average = 1
Total in-flight flits = 18 (0 measured)
latency change    = 0.0210161
throughput change = 0.0532178
Warmed up ...Time used is 1500 cycles
Class 0:
Packet latency average = 23.643
	minimum = 7
	maximum = 83
Network latency average = 23.6333
	minimum = 7
	maximum = 83
Slowest packet = 141999
Flit latency average = 23.9063
	minimum = 7
	maximum = 83
Slowest flit = 141999
Fragmentation average = 0
	minimum = 0
	maximum = 0
Injected packet rate average = 0.054
	minimum = 0.03 (at node 7)
	maximum = 0.07 (at node 12)
Accepted packet rate average = 0.053375
	minimum = 0.042 (at node 5)
	maximum = 0.078 (at node 13)
Injected flit rate average = 0.054
	minimum = 0.03 (at node 7)
	maximum = 0.07 (at node 12)
Accepted flit rate average= 0.053375
	minimum = 0.042 (at node 5)
	maximum = 0.078 (at node 13)
Injected packet length average = 1
Accepted packet length average = 1
Total in-flight flits = 23 (23 measured)
latency change    = 0.0291867
throughput change = 0.0538642
Class 0:
Packet latency average = 23.2
	minimum = 7
	maximum = 89
Network latency average = 23.1952
	minimum = 7
	maximum = 89
Slowest packet = 142186
Flit latency average = 23.3403
	minimum = 7
	maximum = 89
Slowest flit = 142186
Fragmentation average = 0
	minimum = 0
	maximum = 0
Injected packet rate average = 0.053875
	minimum = 0.04 (at node 7)
	maximum = 0.071 (at node 14)
Accepted packet rate average = 0.053625
	minimum = 0.039 (at node 12)
	maximum = 0.068 (at node 0)
Injected flit rate average = 0.053875
	minimum = 0.04 (at node 7)
	maximum = 0.071 (at node 14)
Accepted flit rate average= 0.053625
	minimum = 0.039 (at node 12)
	maximum = 0.068 (at node 0)
Injected packet length average = 1
Accepted packet length average = 1
Total in-flight flits = 22 (22 measured)
latency change    = 0.0190962
throughput change = 0.004662
Class 0:
Packet latency average = 23.7357
	minimum = 7
	maximum = 100
Network latency average = 23.7325
	minimum = 7
	maximum = 100
Slowest packet = 142818
Flit latency average = 23.8234
	minimum = 7
	maximum = 100
Slowest flit = 142818
Fragmentation average = 0
	minimum = 0
	maximum = 0
Injected packet rate average = 0.0532083
	minimum = 0.042 (at node 1)
	maximum = 0.0706667 (at node 4)
Accepted packet rate average = 0.052625
	minimum = 0.0453333 (at node 11)
	maximum = 0.0606667 (at node 4)
Injected flit rate average = 0.0532083
	minimum = 0.042 (at node 1)
	maximum = 0.0706667 (at node 4)
Accepted flit rate average= 0.052625
	minimum = 0.0453333 (at node 11)
	maximum = 0.0606667 (at node 4)
Injected packet length average = 1
Accepted packet length average = 1
Total in-flight flits = 32 (32 measured)
latency change    = 0.0225711
throughput change = 0.0190024
Class 0:
Packet latency average = 23.8779
	minimum = 7
	maximum = 117
Network latency average = 23.8755
	minimum = 7
	maximum = 117
Slowest packet = 143050
Flit latency average = 23.9426
	minimum = 7
	maximum = 117
Slowest flit = 143050
Fragmentation average = 0
	minimum = 0
	maximum = 0
Injected packet rate average = 0.052375
	minimum = 0.043 (at node 1)
	maximum = 0.063 (at node 4)
Accepted packet rate average = 0.05225
	minimum = 0.045 (at node 11)
	maximum = 0.06 (at node 13)
Injected flit rate average = 0.052375
	minimum = 0.043 (at node 1)
	maximum = 0.063 (at node 4)
Accepted flit rate average= 0.05225
	minimum = 0.045 (at node 11)
	maximum = 0.06 (at node 13)
Injected packet length average = 1
Accepted packet length average = 1
Total in-flight flits = 22 (22 measured)
latency change    = 0.00595233
throughput change = 0.00717703
Draining all recorded packets ...
Draining remaining packets ...
Time taken is 3640 cycles
Class 0:
Packet latency average = 22.6534
	minimum = 7
	maximum = 86
Network latency average = 22.6534
	minimum = 7
	maximum = 86
Slowest packet = 143550
Flit latency average = 22.6534
	minimum = 7
	maximum = 86
Slowest flit = 143550
Fragmentation average = 0
	minimum = 0
	maximum = 0
Injected packet rate average = 0.04625
	minimum = 0.034 (at node 1)
	maximum = 0.066 (at node 9)
Accepted packet rate average = 0.044
	minimum = 0.026 (at node 6)
	maximum = 0.068 (at node 5)
Injected flit rate average = 0.04625
	minimum = 0.034 (at node 1)
	maximum = 0.066 (at node 9)
Accepted flit rate average= 0.044
	minimum = 0.026 (at node 6)
	maximum = 0.068 (at node 5)
Injected packet length average = 1
Accepted packet length average = 1
Total in-flight flits = 18 (0 measured)
latency change    = 1
throughput change = 1
Class 0:
Packet latency average = 21.9878
	minimum = 7
	maximum = 86
Network latency average = 21.9878
	minimum = 7
	maximum = 86
Slowest packet = 143550
Flit latency average = 21.9878
	minimum = 7
	maximum = 86
Slowest flit = 143550
Fragmentation average = 0
	minimum = 0
	maximum = 0
Injected packet rate average = 0.0475
	minimum = 0.039 (at node 1)
	maximum = 0.06 (at node 9)
Accepted packet rate average = 0.046125
	minimum = 0.028 (at node 10)
	maximum = 0.057 (at node 1)
Injected flit rate average = 0.0475
	minimum = 0.039 (at node 1)
	maximum = 0.06 (at node 9)
Accepted flit rate average= 0.046125
	minimum = 0.028 (at node 10)
	maximum = 0.057 (at node 1)
Injected packet length average = 1
Accepted packet length average = 1
Total in-flight flits = 22 (0 measured)
latency change    = 0.0302715
throughput change = 0.0460705
Class 0:
Packet latency average = 24.3766
	minimum = 7
	maximum = 85
Network latency average = 24.3766
	minimum = 7
	maximum = 85
Slowest packet = 144468
Flit latency average = 24.3766
	minimum = 7
	maximum = 85
Slowest flit = 144468
Fragmentation average = 0
	minimum = 0
	maximum = 0
Injected packet rate average = 0.04975
	minimum = 0.032 (at node 6)
	maximum = 0.066 (at node 2)
Accepted packet rate average = 0.050125
	minimum = 0.034 (at node 9)
	maximum = 0.064 (at node 3)
Injected flit rate average = 0.04975
	minimum = 0.032 (at node 6)
	maximum = 0.066 (at node 2)
Accepted flit rate average= 0.050125
	minimum = 0.034 (at node 9)
	maximum = 0.064 (at node 3)
Injected packet length average = 1
Accepted packet length average = 1
Total in-flight flits = 19 (0 measured)
latency change    = 0.0979939
throughput change = 0.0798005
Warmed up ...Time used is 1500 cycles
Class 0:
Packet latency average = 22.3238
	minimum = 7
	maximum = 73
Network latency average = 22.3238
	minimum = 7
	maximum = 73
Slowest packet = 144748
Flit latency average = 22.4864
	minimum = 7
	maximum = 73
Slowest flit = 144748
Fragmentation average = 0
	minimum = 0
	maximum = 0
Injected packet rate average = 0.050875
	minimum = 0.034 (at node 3)
	maximum = 0.082 (at node 8)
Accepted packet rate average = 0.050625
	minimum = 0.034 (at node 13)
	maximum = 0.076 (at node 0)
Injected flit rate average = 0.050875
	minimum = 0.034 (at node 3)
	maximum = 0.082 (at node 8)
Accepted flit rate average= 0.050625
	minimum = 0.034 (at node 13)
	maximum = 0.076 (at node 0)
Injected packet length average = 1
Accepted packet length average = 1
Total in-flight flits = 21 (21 measured)
latency change    = 0.0919521
throughput change = 0.00987654
Class 0:
Packet latency average = 23.0787
	minimum = 7
	maximum = 73
Network latency average = 23.0787
	minimum = 7
	maximum = 73
Slowest packet = 144748
Flit latency average = 23.1436
	minimum = 7
	maximum = 73
Slowest flit = 144748
Fragmentation average = 0
	minimum = 0
	maximum = 0
Injected packet rate average = 0.049375
	minimum = 0.036 (at node 13)
	maximum = 0.06 (at node 8)
Accepted packet rate average = 0.049625
	minimum = 0.04 (at node 5)
	maximum = 0.067 (at node 0)
Injected flit rate average = 0.049375
	minimum = 0.036 (at node 13)
	maximum = 0.06 (at node 8)
Accepted flit rate average= 0.049625
	minimum = 0.04 (at node 5)
	maximum = 0.067 (at node 0)
Injected packet length average = 1
Accepted packet length average = 1
Total in-flight flits = 15 (15 measured)
latency change    = 0.0327087
throughput change = 0.0201511
Class 0:
Packet latency average = 23.6318
	minimum = 7
	maximum = 76
Network latency average = 23.6318
	minimum = 7
	maximum = 76
Slowest packet = 145609
Flit latency average = 23.6664
	minimum = 7
	maximum = 76
Slowest flit = 145609
Fragmentation average = 0
	minimum = 0
	maximum = 0
Injected packet rate average = 0.04925
	minimum = 0.04 (at node 9)
	maximum = 0.0566667 (at node 8)
Accepted packet rate average = 0.0493333
	minimum = 0.0426667 (at node 12)
	maximum = 0.062 (at node 0)
Injected flit rate average = 0.04925
	minimum = 0.04 (at node 9)
	maximum = 0.0566667 (at node 8)
Accepted flit rate average= 0.0493333
	minimum = 0.0426667 (at node 12)
	maximum = 0.062 (at node 0)
Injected packet length average = 1
Accepted packet length average = 1
Total in-flight flits = 17 (17 measured)
latency change    = 0.0234028
throughput change = 0.00591216
Class 0:
Packet latency average = 23.8679
	minimum = 7
	maximum = 95
Network latency average = 23.8679
	minimum = 7
	maximum = 95
Slowest packet = 145972
Flit latency average = 23.8908
	minimum = 7
	maximum = 95
Slowest flit = 145972
Fragmentation average = 0
	minimum = 0
	maximum = 0
Injected packet rate average = 0.0498437
	minimum = 0.0395 (at node 9)
	maximum = 0.057 (at node 8)
Accepted packet rate average = 0.0497812
	minimum = 0.0405 (at node 12)
	maximum = 0.0605 (at node 0)
Injected flit rate average = 0.0498437
	minimum = 0.0395 (at node 9)
	maximum = 0.057 (at node 8)
Accepted flit rate average= 0.0497812
	minimum = 0.0405 (at node 12)
	maximum = 0.0605 (at node 0)
Injected packet length average = 1
Accepted packet length average = 1
Total in-flight flits = 21 (21 measured)
latency change    = 0.00989167
throughput change = 0.0089977
Draining all recorded packets ...
Draining remaining packets ...
Time taken is 3587 cycles
====== Overall Traffic Statistics ======
====== Traffic class 0 ======
Packet latency average = 23.8463 (50 samples)
	minimum = 7 (50 samples)
	maximum = 121.6 (50 samples)
Network latency average = 23.8408 (50 samples)
	minimum = 7 (50 samples)
	maximum = 121.6 (50 samples)
Flit latency average = 23.9071 (50 samples)
	minimum = 7 (50 samples)
	maximum = 121.68 (50 samples)
Fragmentation average = 0 (50 samples)
	minimum = 0 (50 samples)
	maximum = 0 (50 samples)
Injected packet rate average = 0.0499234 (50 samples)
	minimum = 0.0412912 (50 samples)
	maximum = 0.0587941 (50 samples)
Accepted packet rate average = 0.0499197 (50 samples)
	minimum = 0.0409396 (50 samples)
	maximum = 0.0586758 (50 samples)
Injected flit rate average = 0.0499234 (50 samples)
	minimum = 0.0412912 (50 samples)
	maximum = 0.0587941 (50 samples)
Accepted flit rate average = 0.0499197 (50 samples)
	minimum = 0.0409396 (50 samples)
	maximum = 0.0586758 (50 samples)
Injected packet size average = 1 (50 samples)
Accepted packet size average = 1 (50 samples)
Hops average = 3.9089 (50 samples)
Total run time 2.15244
