BEGIN Configuration File: /tmp/tmphof4aq25.cfg
topology = mesh;
k = 4;
n = 2;
routing_function = planar_adapt;
num_vcs = 4;
vc_buf_size = 4;
wait_for_tail_credit = 1;
vc_allocator = islip;
sw_allocator = islip;
alloc_iters = 1;
credit_delay = 2;
routing_delay = 1;
vc_alloc_delay = 1;
sw_alloc_delay = 1;
input_speedup = 2;
output_speedup = 1;
internal_speedup = 1.0;
traffic = transpose;
packet_size = 1;
sim_type = latency;
injection_rate = 0.05;
warmup_periods = 3;
sample_period = 500;
sim_count = 50;
seed = 0;
link_failures = 0;
fail_seed = 303;

END Configuration File: /tmp/tmphof4aq25.cfg
Class 0:
Packet latency average = 24.0236
	minimum = 7
	maximum = 104
Network latency average = 24.0236
	minimum = 7
	maximum = 104
Slowest packet = 280
Flit latency average = 24.0236
	minimum = 7
	maximum = 104
Slowest flit = 280
Fragmentation average = 0
	minimum = 0
	maximum = 0
Injected packet rate average = 0.049625
	minimum = 0.032 (at node 8)
	maximum = 0.064 (at node 13)
Accepted packet rate average = 0.04775
	minimum = 0.032 (at node 2)
	maximum = 0.062 (at node 7)
Injected flit rate average = 0.049625
	minimum = 0.032 (at node 8)
	maximum = 0.064 (at node 13)
Accepted flit rate average= 0.04775
	minimum = 0.032 (at node 2)
	maximum = 0.062 (at node 7)
Injected packet length average = 1
Accepted packet length average = 1
Total in-flight flits = 15 (0 measured)
latency change    = 1
throughput change = 1
Class 0:
Packet latency average = 22.3299
	minimum = 7
	maximum = 104
Network latency average = 22.3299
	minimum = 7
	maximum = 104
Slowest packet = 280
Flit latency average = 22.3299
	minimum = 7
	maximum = 104
Slowest flit = 280
Fragmentation average = 0
	minimum = 0
	maximum = 0
Injected packet rate average = 0.048875
	minimum = 0.041 (at node 5)
	maximum = 0.054 (at node 1)
Accepted packet rate average = 0.048125
	minimum = 0.041 (at node 2)
	maximum = 0.054 (at node 4)
Injected flit rate average = 0.048875
	minimum = 0.041 (at node 5)
	maximum = 0.054 (at node 1)
Accepted flit rate average= 0.048125
	minimum = 0.041 (at node 2)
	maximum = 0.054 (at node 4)
Injected packet length average = 1
Accepted packet length average = 1
Total in-flight flits = 12 (0 measured)
latency change    = 0.0758486
throughput change = 0.00779221
Class 0:
Packet latency average = 21.399
	minimum = 7
	maximum = 70
Network latency average = 21.399
	minimum = 7
	maximum = 70
Slowest packet = 1014
Flit latency average = 21.399
	minimum = 7
	maximum = 70
Slowest flit = 1014
Fragmentation average = 0
	minimum = 0
	maximum = 0
Injected packet rate average = 0.05025
	minimum = 0.032 (at node 11)
	maximum = 0.064 (at node 12)
Accepted packet rate average = 0.048875
	minimum = 0.034 (at node 4)
	maximum = 0.064 (at node 0)
Injected flit rate average = 0.05025
	minimum = 0.032 (at node 11)
	maximum = 0.064 (at node 12)
Accepted flit rate average= 0.048875
	minimum = 0.034 (at node 4)
	maximum = 0.064 (at node 0)
Injected packet length average = 1
Accepted packet length average = 1
Total in-flight flits = 23 (0 measured)
latency change    = 0.0435018
throughput change = 0.0153453
Warmed up ...Time used is 1500 cycles
Class 0:
Packet latency average = 23.672
	minimum = 7
	maximum = 101
Network latency average = 23.6022
	minimum = 7
	maximum = 101
Slowest packet = 1212
Flit latency average = 24.281
	minimum = 7
	maximum = 101
Slowest flit = 1212
Fragmentation average = 0
	minimum = 0
	maximum = 0
Injected packet rate average = 0.0485
	minimum = 0.03 (at node 9)
	maximum = 0.064 (at node 13)
Accepted packet rate average = 0.049375
	minimum = 0.032 (at node 6)
	maximum = 0.064 (at node 3)
Injected flit rate average = 0.0485
	minimum = 0.03 (at node 9)
	maximum = 0.064 (at node 13)
Accepted flit rate average= 0.049375
	minimum = 0.032 (at node 6)
	maximum = 0.064 (at node 3)
Injected packet length average = 1
Accepted packet length average = 1
Total in-flight flits = 16 (16 measured)
latency change    = 0.0960232
throughput change = 0.0101266
Class 0:
Packet latency average = 24.2203
	minimum = 7
	maximum = 108
Network latency average = 24.1418
	minimum = 7
	maximum = 108
Slowest packet = 1731
Flit latency average = 24.4563
	minimum = 7
	maximum = 108
Slowest flit = 1731
Fragmentation average = 0
	minimum = 0
	maximum = 0
Injected packet rate average = 0.0504375
	minimum = 0.038 (at node 9)
	maximum = 0.061 (at node 13)
Accepted packet rate average = 0.0508125
	minimum = 0.039 (at node 6)
	maximum = 0.059 (at node 7)
Injected flit rate average = 0.0504375
	minimum = 0.038 (at node 9)
	maximum = 0.061 (at node 13)
Accepted flit rate average= 0.0508125
	minimum = 0.039 (at node 6)
	maximum = 0.059 (at node 7)
Injected packet length average = 1
Accepted packet length average = 1
Total in-flight flits = 18 (18 measured)
latency change    = 0.0226344
throughput change = 0.0282903
Class 0:
Packet latency average = 23.6465
	minimum = 7
	maximum = 108
Network latency average = 23.5735
	minimum = 7
	maximum = 108
Slowest packet = 1731
Flit latency average = 23.7949
	minimum = 7
	maximum = 108
Slowest flit = 1731
Fragmentation average = 0
	minimum = 0
	maximum = 0
Injected packet rate average = 0.0507083
	minimum = 0.0433333 (at node 9)
	maximum = 0.0566667 (at node 12)
Accepted packet rate average = 0.0505833
	minimum = 0.0426667 (at node 6)
	maximum = 0.058 (at node 3)
Injected flit rate average = 0.0507083
	minimum = 0.0433333 (at node 9)
	maximum = 0.0566667 (at node 12)
Accepted flit rate average= 0.0505833
	minimum = 0.0426667 (at node 6)
	maximum = 0.058 (at node 3)
Injected packet length average = 1
Accepted packet length average = 1
Total in-flight flits = 26 (26 measured)
latency change    = 0.0242631
throughput change = 0.00453048
Class 0:
Packet latency average = 23.4518
	minimum = 7
	maximum = 109
Network latency average = 23.3974
	minimum = 7
	maximum = 109
Slowest packet = 2656
Flit latency average = 23.5657
	minimum = 7
	maximum = 109
Slowest flit = 2656
Fragmentation average = 0
	minimum = 0
	maximum = 0
Injected packet rate average = 0.0504062
	minimum = 0.0455 (at node 0)
	maximum = 0.054 (at node 15)
Accepted packet rate average = 0.0506562
	minimum = 0.0455 (at node 0)
	maximum = 0.0565 (at node 3)
Injected flit rate average = 0.0504062
	minimum = 0.0455 (at node 0)
	maximum = 0.054 (at node 15)
Accepted flit rate average= 0.0506562
	minimum = 0.0455 (at node 0)
	maximum = 0.0565 (at node 3)
Injected packet length average = 1
Accepted packet length average = 1
Total in-flight flits = 15 (15 measured)
latency change    = 0.00830216
throughput change = 0.00143944
Draining all recorded packets ...
Draining remaining packets ...
Time taken is 3588 cycles
Class 0:
Packet latency average = 20.3092
	minimum = 7
	maximum = 61
Network latency average = 20.3092
	minimum = 7
	maximum = 61
Slowest packet = 3001
Flit latency average = 20.3092
	minimum = 7
	maximum = 61
Slowest flit = 3001
Fragmentation average = 0
	minimum = 0
	maximum = 0
Injected packet rate average = 0.045875
	minimum = 0.028 (at node 0)
	maximum = 0.062 (at node 11)
Accepted packet rate average = 0.04325
	minimum = 0.028 (at node 0)
	maximum = 0.06 (at node 14)
Injected flit rate average = 0.045875
	minimum = 0.028 (at node 0)
	maximum = 0.062 (at node 11)
Accepted flit rate average= 0.04325
	minimum = 0.028 (at node 0)
	maximum = 0.06 (at node 14)
Injected packet length average = 1
Accepted packet length average = 1
Total in-flight flits = 21 (0 measured)
latency change    = 1
throughput change = 1
Class 0:
Packet latency average = 20.2776
	minimum = 7
	maximum = 65
Network latency average = 20.2776
	minimum = 7
	maximum = 65
Slowest packet = 3274
Flit latency average = 20.2776
	minimum = 7
	maximum = 65
Slowest flit = 3274
Fragmentation average = 0
	minimum = 0
	maximum = 0
Injected packet rate average = 0.0461875
	minimum = 0.038 (at node 0)
	maximum = 0.057 (at node 9)
Accepted packet rate average = 0.04525
	minimum = 0.038 (at node 0)
	maximum = 0.057 (at node 6)
Injected flit rate average = 0.0461875
	minimum = 0.038 (at node 0)
	maximum = 0.057 (at node 9)
Accepted flit rate average= 0.04525
	minimum = 0.038 (at node 0)
	maximum = 0.057 (at node 6)
Injected packet length average = 1
Accepted packet length average = 1
Total in-flight flits = 15 (0 measured)
latency change    = 0.00155956
throughput change = 0.0441989
Class 0:
Packet latency average = 20.8156
	minimum = 7
	maximum = 62
Network latency average = 20.8156
	minimum = 7
	maximum = 62
Slowest packet = 3825
Flit latency average = 20.8156
	minimum = 7
	maximum = 62
Slowest flit = 3825
Fragmentation average = 0
	minimum = 0
	maximum = 0
Injected packet rate average = 0.049
	minimum = 0.034 (at node 0)
	maximum = 0.064 (at node 9)
Accepted packet rate average = 0.048125
	minimum = 0.03 (at node 7)
	maximum = 0.062 (at node 6)
Injected flit rate average = 0.049
	minimum = 0.034 (at node 0)
	maximum = 0.064 (at node 9)
Accepted flit rate average= 0.048125
	minimum = 0.03 (at node 7)
	maximum = 0.062 (at node 6)
Injected packet length average = 1
Accepted packet length average = 1
Total in-flight flits = 22 (0 measured)
latency change    = 0.0258441
throughput change = 0.0597403
Warmed up ...Time used is 1500 cycles
Class 0:
Packet latency average = 20.5176
	minimum = 7
	maximum = 95
Network latency average = 20.5176
	minimum = 7
	maximum = 95
Slowest packet = 3985
Flit latency average = 20.867
	minimum = 7
	maximum = 95
Slowest flit = 3985
Fragmentation average = 0
	minimum = 0
	maximum = 0
Injected packet rate average = 0.04875
	minimum = 0.032 (at node 2)
	maximum = 0.072 (at node 15)
Accepted packet rate average = 0.048875
	minimum = 0.034 (at node 8)
	maximum = 0.074 (at node 15)
Injected flit rate average = 0.04875
	minimum = 0.032 (at node 2)
	maximum = 0.072 (at node 15)
Accepted flit rate average= 0.048875
	minimum = 0.034 (at node 8)
	maximum = 0.074 (at node 15)
Injected packet length average = 1
Accepted packet length average = 1
Total in-flight flits = 21 (21 measured)
latency change    = 0.0145226
throughput change = 0.0153453
Class 0:
Packet latency average = 21.5455
	minimum = 7
	maximum = 95
Network latency average = 21.5455
	minimum = 7
	maximum = 95
Slowest packet = 3985
Flit latency average = 21.6914
	minimum = 7
	maximum = 95
Slowest flit = 3985
Fragmentation average = 0
	minimum = 0
	maximum = 0
Injected packet rate average = 0.04875
	minimum = 0.036 (at node 6)
	maximum = 0.067 (at node 15)
Accepted packet rate average = 0.0488125
	minimum = 0.038 (at node 9)
	maximum = 0.066 (at node 15)
Injected flit rate average = 0.04875
	minimum = 0.036 (at node 6)
	maximum = 0.067 (at node 15)
Accepted flit rate average= 0.0488125
	minimum = 0.038 (at node 9)
	maximum = 0.066 (at node 15)
Injected packet length average = 1
Accepted packet length average = 1
Total in-flight flits = 21 (21 measured)
latency change    = 0.0477056
throughput change = 0.00128041
Class 0:
Packet latency average = 22.3524
	minimum = 7
	maximum = 99
Network latency average = 22.3524
	minimum = 7
	maximum = 99
Slowest packet = 4811
Flit latency average = 22.4321
	minimum = 7
	maximum = 99
Slowest flit = 4811
Fragmentation average = 0
	minimum = 0
	maximum = 0
Injected packet rate average = 0.0505417
	minimum = 0.0393333 (at node 10)
	maximum = 0.0606667 (at node 15)
Accepted packet rate average = 0.0503333
	minimum = 0.0406667 (at node 10)
	maximum = 0.0613333 (at node 15)
Injected flit rate average = 0.0505417
	minimum = 0.0393333 (at node 10)
	maximum = 0.0606667 (at node 15)
Accepted flit rate average= 0.0503333
	minimum = 0.0406667 (at node 10)
	maximum = 0.0613333 (at node 15)
Injected packet length average = 1
Accepted packet length average = 1
Total in-flight flits = 27 (27 measured)
latency change    = 0.036103
throughput change = 0.0302152
Draining all recorded packets ...
Draining remaining packets ...
Time taken is 3126 cycles
Class 0:
Packet latency average = 20.6106
	minimum = 7
	maximum = 57
Network latency average = 20.6106
	minimum = 7
	maximum = 57
Slowest packet = 5569
Flit latency average = 20.6106
	minimum = 7
	maximum = 57
Slowest flit = 5569
Fragmentation average = 0
	minimum = 0
	maximum = 0
Injected packet rate average = 0.0465
	minimum = 0.034 (at node 12)
	maximum = 0.07 (at node 13)
Accepted packet rate average = 0.044625
	minimum = 0.032 (at node 4)
	maximum = 0.068 (at node 7)
Injected flit rate average = 0.0465
	minimum = 0.034 (at node 12)
	maximum = 0.07 (at node 13)
Accepted flit rate average= 0.044625
	minimum = 0.032 (at node 4)
	maximum = 0.068 (at node 7)
Injected packet length average = 1
Accepted packet length average = 1
Total in-flight flits = 15 (0 measured)
latency change    = 1
throughput change = 1
Class 0:
Packet latency average = 20.5734
	minimum = 7
	maximum = 57
Network latency average = 20.5734
	minimum = 7
	maximum = 57
Slowest packet = 5569
Flit latency average = 20.5734
	minimum = 7
	maximum = 57
Slowest flit = 5569
Fragmentation average = 0
	minimum = 0
	maximum = 0
Injected packet rate average = 0.050125
	minimum = 0.039 (at node 12)
	maximum = 0.064 (at node 13)
Accepted packet rate average = 0.0489375
	minimum = 0.035 (at node 3)
	maximum = 0.062 (at node 7)
Injected flit rate average = 0.050125
	minimum = 0.039 (at node 12)
	maximum = 0.064 (at node 13)
Accepted flit rate average= 0.0489375
	minimum = 0.035 (at node 3)
	maximum = 0.062 (at node 7)
Injected packet length average = 1
Accepted packet length average = 1
Total in-flight flits = 19 (0 measured)
latency change    = 0.00180858
throughput change = 0.0881226
Class 0:
Packet latency average = 21.769
	minimum = 7
	maximum = 69
Network latency average = 21.769
	minimum = 7
	maximum = 69
Slowest packet = 6150
Flit latency average = 21.769
	minimum = 7
	maximum = 69
Slowest flit = 6150
Fragmentation average = 0
	minimum = 0
	maximum = 0
Injected packet rate average = 0.047
	minimum = 0.034 (at node 10)
	maximum = 0.06 (at node 11)
Accepted packet rate average = 0.047625
	minimum = 0.032 (at node 10)
	maximum = 0.06 (at node 12)
Injected flit rate average = 0.047
	minimum = 0.034 (at node 10)
	maximum = 0.06 (at node 11)
Accepted flit rate average= 0.047625
	minimum = 0.032 (at node 10)
	maximum = 0.06 (at node 12)
Injected packet length average = 1
Accepted packet length average = 1
Total in-flight flits = 14 (0 measured)
latency change    = 0.0549218
throughput change = 0.0275591
Warmed up ...Time used is 1500 cycles
Class 0:
Packet latency average = 24.43
	minimum = 7
	maximum = 159
Network latency average = 24.33
	minimum = 7
	maximum = 159
Slowest packet = 6590
Flit latency average = 24.215
	minimum = 7
	maximum = 159
Slowest flit = 6590
Fragmentation average = 0
	minimum = 0
	maximum = 0
Injected packet rate average = 0.053125
	minimum = 0.04 (at node 13)
	maximum = 0.074 (at node 1)
Accepted packet rate average = 0.05175
	minimum = 0.036 (at node 7)
	maximum = 0.072 (at node 4)
Injected flit rate average = 0.053125
	minimum = 0.04 (at node 13)
	maximum = 0.074 (at node 1)
Accepted flit rate average= 0.05175
	minimum = 0.036 (at node 7)
	maximum = 0.072 (at node 4)
Injected packet length average = 1
Accepted packet length average = 1
Total in-flight flits = 25 (25 measured)
latency change    = 0.108922
throughput change = 0.0797101
Class 0:
Packet latency average = 23.6969
	minimum = 7
	maximum = 159
Network latency average = 23.6479
	minimum = 7
	maximum = 159
Slowest packet = 6590
Flit latency average = 23.6019
	minimum = 7
	maximum = 159
Slowest flit = 6590
Fragmentation average = 0
	minimum = 0
	maximum = 0
Injected packet rate average = 0.052625
	minimum = 0.043 (at node 13)
	maximum = 0.063 (at node 6)
Accepted packet rate average = 0.0518125
	minimum = 0.039 (at node 7)
	maximum = 0.062 (at node 9)
Injected flit rate average = 0.052625
	minimum = 0.043 (at node 13)
	maximum = 0.063 (at node 6)
Accepted flit rate average= 0.0518125
	minimum = 0.039 (at node 7)
	maximum = 0.062 (at node 9)
Injected packet length average = 1
Accepted packet length average = 1
Total in-flight flits = 27 (27 measured)
latency change    = 0.0309351
throughput change = 0.00120627
Class 0:
Packet latency average = 22.6867
	minimum = 7
	maximum = 159
Network latency average = 22.6533
	minimum = 7
	maximum = 159
Slowest packet = 6590
Flit latency average = 22.6334
	minimum = 7
	maximum = 159
Slowest flit = 6590
Fragmentation average = 0
	minimum = 0
	maximum = 0
Injected packet rate average = 0.0506667
	minimum = 0.0393333 (at node 13)
	maximum = 0.0586667 (at node 15)
Accepted packet rate average = 0.0504583
	minimum = 0.0386667 (at node 7)
	maximum = 0.058 (at node 15)
Injected flit rate average = 0.0506667
	minimum = 0.0393333 (at node 13)
	maximum = 0.0586667 (at node 15)
Accepted flit rate average= 0.0504583
	minimum = 0.0386667 (at node 7)
	maximum = 0.058 (at node 15)
Injected packet length average = 1
Accepted packet length average = 1
Total in-flight flits = 19 (19 measured)
latency change    = 0.044529
throughput change = 0.0268373
Class 0:
Packet latency average = 22.3944
	minimum = 7
	maximum = 159
Network latency average = 22.3689
	minimum = 7
	maximum = 159
Slowest packet = 6590
Flit latency average = 22.3561
	minimum = 7
	maximum = 159
Slowest flit = 6590
Fragmentation average = 0
	minimum = 0
	maximum = 0
Injected packet rate average = 0.0498125
	minimum = 0.041 (at node 13)
	maximum = 0.055 (at node 12)
Accepted packet rate average = 0.0494062
	minimum = 0.04 (at node 7)
	maximum = 0.055 (at node 15)
Injected flit rate average = 0.0498125
	minimum = 0.041 (at node 13)
	maximum = 0.055 (at node 12)
Accepted flit rate average= 0.0494062
	minimum = 0.04 (at node 7)
	maximum = 0.055 (at node 15)
Injected packet length average = 1
Accepted packet length average = 1
Total in-flight flits = 27 (27 measured)
latency change    = 0.0130538
throughput change = 0.0212945
Draining all recorded packets ...
Draining remaining packets ...
Time taken is 3577 cycles
Class 0:
Packet latency average = 20.3151
	minimum = 7
	maximum = 64
Network latency average = 20.3151
	minimum = 7
	maximum = 64
Slowest packet = 8373
Flit latency average = 20.3151
	minimum = 7
	maximum = 64
Slowest flit = 8373
Fragmentation average = 0
	minimum = 0
	maximum = 0
Injected packet rate average = 0.04925
	minimum = 0.032 (at node 1)
	maximum = 0.066 (at node 11)
Accepted packet rate average = 0.048
	minimum = 0.032 (at node 4)
	maximum = 0.066 (at node 14)
Injected flit rate average = 0.04925
	minimum = 0.032 (at node 1)
	maximum = 0.066 (at node 11)
Accepted flit rate average= 0.048
	minimum = 0.032 (at node 4)
	maximum = 0.066 (at node 14)
Injected packet length average = 1
Accepted packet length average = 1
Total in-flight flits = 10 (0 measured)
latency change    = 1
throughput change = 1
Class 0:
Packet latency average = 21.4052
	minimum = 7
	maximum = 82
Network latency average = 21.4052
	minimum = 7
	maximum = 82
Slowest packet = 8494
Flit latency average = 21.4052
	minimum = 7
	maximum = 82
Slowest flit = 8494
Fragmentation average = 0
	minimum = 0
	maximum = 0
Injected packet rate average = 0.0489375
	minimum = 0.037 (at node 3)
	maximum = 0.057 (at node 9)
Accepted packet rate average = 0.048125
	minimum = 0.035 (at node 12)
	maximum = 0.057 (at node 6)
Injected flit rate average = 0.0489375
	minimum = 0.037 (at node 3)
	maximum = 0.057 (at node 9)
Accepted flit rate average= 0.048125
	minimum = 0.035 (at node 12)
	maximum = 0.057 (at node 6)
Injected packet length average = 1
Accepted packet length average = 1
Total in-flight flits = 13 (0 measured)
latency change    = 0.0509265
throughput change = 0.0025974
Class 0:
Packet latency average = 22.3677
	minimum = 7
	maximum = 79
Network latency average = 22.3677
	minimum = 7
	maximum = 79
Slowest packet = 9018
Flit latency average = 22.3677
	minimum = 7
	maximum = 79
Slowest flit = 9018
Fragmentation average = 0
	minimum = 0
	maximum = 0
Injected packet rate average = 0.05275
	minimum = 0.036 (at node 3)
	maximum = 0.078 (at node 12)
Accepted packet rate average = 0.053375
	minimum = 0.038 (at node 9)
	maximum = 0.076 (at node 3)
Injected flit rate average = 0.05275
	minimum = 0.036 (at node 3)
	maximum = 0.078 (at node 12)
Accepted flit rate average= 0.053375
	minimum = 0.038 (at node 9)
	maximum = 0.076 (at node 3)
Injected packet length average = 1
Accepted packet length average = 1
Total in-flight flits = 8 (0 measured)
latency change    = 0.0430302
throughput change = 0.0983607
Warmed up ...Time used is 1500 cycles
Class 0:
Packet latency average = 22.0154
	minimum = 7
	maximum = 90
Network latency average = 22
	minimum = 7
	maximum = 90
Slowest packet = 9441
Flit latency average = 22.2186
	minimum = 7
	maximum = 90
Slowest flit = 9441
Fragmentation average = 0
	minimum = 0
	maximum = 0
Injected packet rate average = 0.05075
	minimum = 0.032 (at node 9)
	maximum = 0.07 (at node 0)
Accepted packet rate average = 0.04975
	minimum = 0.032 (at node 6)
	maximum = 0.07 (at node 0)
Injected flit rate average = 0.05075
	minimum = 0.032 (at node 9)
	maximum = 0.07 (at node 0)
Accepted flit rate average= 0.04975
	minimum = 0.032 (at node 6)
	maximum = 0.07 (at node 0)
Injected packet length average = 1
Accepted packet length average = 1
Total in-flight flits = 16 (16 measured)
latency change    = 0.0160023
throughput change = 0.0728643
Class 0:
Packet latency average = 22.2632
	minimum = 7
	maximum = 90
Network latency average = 22.2558
	minimum = 7
	maximum = 90
Slowest packet = 9441
Flit latency average = 22.3588
	minimum = 7
	maximum = 90
Slowest flit = 9441
Fragmentation average = 0
	minimum = 0
	maximum = 0
Injected packet rate average = 0.052125
	minimum = 0.041 (at node 14)
	maximum = 0.062 (at node 0)
Accepted packet rate average = 0.0515625
	minimum = 0.04 (at node 11)
	maximum = 0.061 (at node 0)
Injected flit rate average = 0.052125
	minimum = 0.041 (at node 14)
	maximum = 0.062 (at node 0)
Accepted flit rate average= 0.0515625
	minimum = 0.04 (at node 11)
	maximum = 0.061 (at node 0)
Injected packet length average = 1
Accepted packet length average = 1
Total in-flight flits = 17 (17 measured)
latency change    = 0.0111293
throughput change = 0.0351515
Class 0:
Packet latency average = 21.7361
	minimum = 7
	maximum = 90
Network latency average = 21.7313
	minimum = 7
	maximum = 90
Slowest packet = 9441
Flit latency average = 21.8026
	minimum = 7
	maximum = 90
Slowest flit = 9441
Fragmentation average = 0
	minimum = 0
	maximum = 0
Injected packet rate average = 0.0524583
	minimum = 0.0426667 (at node 14)
	maximum = 0.058 (at node 0)
Accepted packet rate average = 0.052125
	minimum = 0.042 (at node 11)
	maximum = 0.058 (at node 0)
Injected flit rate average = 0.0524583
	minimum = 0.0426667 (at node 14)
	maximum = 0.058 (at node 0)
Accepted flit rate average= 0.052125
	minimum = 0.042 (at node 11)
	maximum = 0.058 (at node 0)
Injected packet length average = 1
Accepted packet length average = 1
Total in-flight flits = 16 (16 measured)
latency change    = 0.024247
throughput change = 0.0107914
Class 0:
Packet latency average = 22.1336
	minimum = 7
	maximum = 90
Network latency average = 22.1194
	minimum = 7
	maximum = 90
Slowest packet = 9441
Flit latency average = 22.1702
	minimum = 7
	maximum = 90
Slowest flit = 9441
Fragmentation average = 0
	minimum = 0
	maximum = 0
Injected packet rate average = 0.0530313
	minimum = 0.043 (at node 14)
	maximum = 0.0615 (at node 2)
Accepted packet rate average = 0.052875
	minimum = 0.043 (at node 11)
	maximum = 0.0615 (at node 10)
Injected flit rate average = 0.0530313
	minimum = 0.043 (at node 14)
	maximum = 0.0615 (at node 2)
Accepted flit rate average= 0.052875
	minimum = 0.043 (at node 11)
	maximum = 0.0615 (at node 10)
Injected packet length average = 1
Accepted packet length average = 1
Total in-flight flits = 13 (13 measured)
latency change    = 0.0179586
throughput change = 0.0141844
Draining all recorded packets ...
Draining remaining packets ...
Time taken is 3590 cycles
Class 0:
Packet latency average = 28.5037
	minimum = 7
	maximum = 174
Network latency average = 27.129
	minimum = 7
	maximum = 157
Slowest packet = 11100
Flit latency average = 27.129
	minimum = 7
	maximum = 157
Slowest flit = 11156
Fragmentation average = 0
	minimum = 0
	maximum = 0
Injected packet rate average = 0.053125
	minimum = 0.034 (at node 5)
	maximum = 0.076 (at node 12)
Accepted packet rate average = 0.050375
	minimum = 0.034 (at node 5)
	maximum = 0.064 (at node 7)
Injected flit rate average = 0.053125
	minimum = 0.034 (at node 5)
	maximum = 0.076 (at node 12)
Accepted flit rate average= 0.050375
	minimum = 0.034 (at node 5)
	maximum = 0.064 (at node 7)
Injected packet length average = 1
Accepted packet length average = 1
Total in-flight flits = 22 (0 measured)
latency change    = 1
throughput change = 1
Class 0:
Packet latency average = 25.898
	minimum = 7
	maximum = 174
Network latency average = 25.0592
	minimum = 7
	maximum = 157
Slowest packet = 11100
Flit latency average = 25.0592
	minimum = 7
	maximum = 157
Slowest flit = 11156
Fragmentation average = 0
	minimum = 0
	maximum = 0
Injected packet rate average = 0.050375
	minimum = 0.042 (at node 0)
	maximum = 0.058 (at node 13)
Accepted packet rate average = 0.049625
	minimum = 0.042 (at node 0)
	maximum = 0.057 (at node 7)
Injected flit rate average = 0.050375
	minimum = 0.042 (at node 0)
	maximum = 0.058 (at node 13)
Accepted flit rate average= 0.049625
	minimum = 0.042 (at node 0)
	maximum = 0.057 (at node 7)
Injected packet length average = 1
Accepted packet length average = 1
Total in-flight flits = 12 (0 measured)
latency change    = 0.100615
throughput change = 0.0151134
Class 0:
Packet latency average = 20.4912
	minimum = 7
	maximum = 68
Network latency average = 20.4912
	minimum = 7
	maximum = 68
Slowest packet = 11774
Flit latency average = 20.4912
	minimum = 7
	maximum = 68
Slowest flit = 11774
Fragmentation average = 0
	minimum = 0
	maximum = 0
Injected packet rate average = 0.04975
	minimum = 0.036 (at node 6)
	maximum = 0.064 (at node 2)
Accepted packet rate average = 0.049625
	minimum = 0.036 (at node 4)
	maximum = 0.062 (at node 8)
Injected flit rate average = 0.04975
	minimum = 0.036 (at node 6)
	maximum = 0.064 (at node 2)
Accepted flit rate average= 0.049625
	minimum = 0.036 (at node 4)
	maximum = 0.062 (at node 8)
Injected packet length average = 1
Accepted packet length average = 1
Total in-flight flits = 13 (0 measured)
latency change    = 0.26386
throughput change = 0
Warmed up ...Time used is 1500 cycles
Class 0:
Packet latency average = 21.0079
	minimum = 7
	maximum = 86
Network latency average = 21.0079
	minimum = 7
	maximum = 86
Slowest packet = 12286
Flit latency average = 21.0736
	minimum = 7
	maximum = 86
Slowest flit = 12286
Fragmentation average = 0
	minimum = 0
	maximum = 0
Injected packet rate average = 0.049625
	minimum = 0.034 (at node 4)
	maximum = 0.068 (at node 15)
Accepted packet rate average = 0.04925
	minimum = 0.034 (at node 1)
	maximum = 0.066 (at node 15)
Injected flit rate average = 0.049625
	minimum = 0.034 (at node 4)
	maximum = 0.068 (at node 15)
Accepted flit rate average= 0.04925
	minimum = 0.034 (at node 1)
	maximum = 0.066 (at node 15)
Injected packet length average = 1
Accepted packet length average = 1
Total in-flight flits = 16 (16 measured)
latency change    = 0.0245951
throughput change = 0.00761421
Class 0:
Packet latency average = 21.3985
	minimum = 7
	maximum = 86
Network latency average = 21.3985
	minimum = 7
	maximum = 86
Slowest packet = 12286
Flit latency average = 21.4246
	minimum = 7
	maximum = 86
Slowest flit = 12286
Fragmentation average = 0
	minimum = 0
	maximum = 0
Injected packet rate average = 0.050375
	minimum = 0.036 (at node 0)
	maximum = 0.062 (at node 15)
Accepted packet rate average = 0.04975
	minimum = 0.036 (at node 0)
	maximum = 0.061 (at node 11)
Injected flit rate average = 0.050375
	minimum = 0.036 (at node 0)
	maximum = 0.062 (at node 15)
Accepted flit rate average= 0.04975
	minimum = 0.036 (at node 0)
	maximum = 0.061 (at node 11)
Injected packet length average = 1
Accepted packet length average = 1
Total in-flight flits = 23 (23 measured)
latency change    = 0.0182533
throughput change = 0.0100503
Class 0:
Packet latency average = 20.9991
	minimum = 7
	maximum = 86
Network latency average = 20.9991
	minimum = 7
	maximum = 86
Slowest packet = 12286
Flit latency average = 21.0215
	minimum = 7
	maximum = 86
Slowest flit = 12286
Fragmentation average = 0
	minimum = 0
	maximum = 0
Injected packet rate average = 0.0484167
	minimum = 0.036 (at node 7)
	maximum = 0.06 (at node 15)
Accepted packet rate average = 0.0484167
	minimum = 0.0366667 (at node 13)
	maximum = 0.06 (at node 15)
Injected flit rate average = 0.0484167
	minimum = 0.036 (at node 7)
	maximum = 0.06 (at node 15)
Accepted flit rate average= 0.0484167
	minimum = 0.0366667 (at node 13)
	maximum = 0.06 (at node 15)
Injected packet length average = 1
Accepted packet length average = 1
Total in-flight flits = 13 (13 measured)
latency change    = 0.0190169
throughput change = 0.0275387
Draining all recorded packets ...
Draining remaining packets ...
Time taken is 3074 cycles
Class 0:
Packet latency average = 24.455
	minimum = 7
	maximum = 80
Network latency average = 24.4499
	minimum = 7
	maximum = 80
Slowest packet = 13472
Flit latency average = 24.4499
	minimum = 7
	maximum = 80
Slowest flit = 13472
Fragmentation average = 0
	minimum = 0
	maximum = 0
Injected packet rate average = 0.050375
	minimum = 0.036 (at node 15)
	maximum = 0.076 (at node 12)
Accepted packet rate average = 0.048625
	minimum = 0.034 (at node 15)
	maximum = 0.074 (at node 3)
Injected flit rate average = 0.050375
	minimum = 0.036 (at node 15)
	maximum = 0.076 (at node 12)
Accepted flit rate average= 0.048625
	minimum = 0.034 (at node 15)
	maximum = 0.074 (at node 3)
Injected packet length average = 1
Accepted packet length average = 1
Total in-flight flits = 14 (0 measured)
latency change    = 1
throughput change = 1
Class 0:
Packet latency average = 23.0198
	minimum = 7
	maximum = 80
Network latency average = 23.0172
	minimum = 7
	maximum = 80
Slowest packet = 13472
Flit latency average = 23.0172
	minimum = 7
	maximum = 80
Slowest flit = 13472
Fragmentation average = 0
	minimum = 0
	maximum = 0
Injected packet rate average = 0.047875
	minimum = 0.038 (at node 6)
	maximum = 0.066 (at node 12)
Accepted packet rate average = 0.04725
	minimum = 0.037 (at node 15)
	maximum = 0.064 (at node 3)
Injected flit rate average = 0.047875
	minimum = 0.038 (at node 6)
	maximum = 0.066 (at node 12)
Accepted flit rate average= 0.04725
	minimum = 0.037 (at node 15)
	maximum = 0.064 (at node 3)
Injected packet length average = 1
Accepted packet length average = 1
Total in-flight flits = 10 (0 measured)
latency change    = 0.062345
throughput change = 0.0291005
Class 0:
Packet latency average = 26.5882
	minimum = 7
	maximum = 212
Network latency average = 26.4216
	minimum = 7
	maximum = 212
Slowest packet = 14296
Flit latency average = 26.4216
	minimum = 7
	maximum = 212
Slowest flit = 14296
Fragmentation average = 0
	minimum = 0
	maximum = 0
Injected packet rate average = 0.052625
	minimum = 0.032 (at node 13)
	maximum = 0.084 (at node 14)
Accepted packet rate average = 0.051
	minimum = 0.034 (at node 7)
	maximum = 0.082 (at node 11)
Injected flit rate average = 0.052625
	minimum = 0.032 (at node 13)
	maximum = 0.084 (at node 14)
Accepted flit rate average= 0.051
	minimum = 0.034 (at node 7)
	maximum = 0.082 (at node 11)
Injected packet length average = 1
Accepted packet length average = 1
Total in-flight flits = 23 (0 measured)
latency change    = 0.13421
throughput change = 0.0735294
Warmed up ...Time used is 1500 cycles
Class 0:
Packet latency average = 23.2191
	minimum = 7
	maximum = 92
Network latency average = 23.2191
	minimum = 7
	maximum = 92
Slowest packet = 14716
Flit latency average = 23.2095
	minimum = 7
	maximum = 92
Slowest flit = 14716
Fragmentation average = 0
	minimum = 0
	maximum = 0
Injected packet rate average = 0.051375
	minimum = 0.038 (at node 1)
	maximum = 0.074 (at node 13)
Accepted packet rate average = 0.0525
	minimum = 0.038 (at node 4)
	maximum = 0.076 (at node 13)
Injected flit rate average = 0.051375
	minimum = 0.038 (at node 1)
	maximum = 0.074 (at node 13)
Accepted flit rate average= 0.0525
	minimum = 0.038 (at node 4)
	maximum = 0.076 (at node 13)
Injected packet length average = 1
Accepted packet length average = 1
Total in-flight flits = 14 (14 measured)
latency change    = 0.1451
throughput change = 0.0285714
Class 0:
Packet latency average = 21.9151
	minimum = 7
	maximum = 92
Network latency average = 21.9151
	minimum = 7
	maximum = 92
Slowest packet = 14716
Flit latency average = 21.9466
	minimum = 7
	maximum = 92
Slowest flit = 14716
Fragmentation average = 0
	minimum = 0
	maximum = 0
Injected packet rate average = 0.051
	minimum = 0.04 (at node 3)
	maximum = 0.065 (at node 4)
Accepted packet rate average = 0.0515
	minimum = 0.041 (at node 12)
	maximum = 0.067 (at node 1)
Injected flit rate average = 0.051
	minimum = 0.04 (at node 3)
	maximum = 0.065 (at node 4)
Accepted flit rate average= 0.0515
	minimum = 0.041 (at node 12)
	maximum = 0.067 (at node 1)
Injected packet length average = 1
Accepted packet length average = 1
Total in-flight flits = 15 (15 measured)
latency change    = 0.059504
throughput change = 0.0194175
Class 0:
Packet latency average = 22.3256
	minimum = 7
	maximum = 92
Network latency average = 22.3256
	minimum = 7
	maximum = 92
Slowest packet = 14716
Flit latency average = 22.339
	minimum = 7
	maximum = 92
Slowest flit = 14716
Fragmentation average = 0
	minimum = 0
	maximum = 0
Injected packet rate average = 0.0514167
	minimum = 0.0413333 (at node 5)
	maximum = 0.0626667 (at node 7)
Accepted packet rate average = 0.0515
	minimum = 0.042 (at node 5)
	maximum = 0.0626667 (at node 13)
Injected flit rate average = 0.0514167
	minimum = 0.0413333 (at node 5)
	maximum = 0.0626667 (at node 7)
Accepted flit rate average= 0.0515
	minimum = 0.042 (at node 5)
	maximum = 0.0626667 (at node 13)
Injected packet length average = 1
Accepted packet length average = 1
Total in-flight flits = 21 (21 measured)
latency change    = 0.0183884
throughput change = 0
Class 0:
Packet latency average = 22.3863
	minimum = 7
	maximum = 92
Network latency average = 22.3863
	minimum = 7
	maximum = 92
Slowest packet = 14716
Flit latency average = 22.3956
	minimum = 7
	maximum = 92
Slowest flit = 14716
Fragmentation average = 0
	minimum = 0
	maximum = 0
Injected packet rate average = 0.0509375
	minimum = 0.0435 (at node 15)
	maximum = 0.062 (at node 7)
Accepted packet rate average = 0.050875
	minimum = 0.0445 (at node 11)
	maximum = 0.0615 (at node 13)
Injected flit rate average = 0.0509375
	minimum = 0.0435 (at node 15)
	maximum = 0.062 (at node 7)
Accepted flit rate average= 0.050875
	minimum = 0.0445 (at node 11)
	maximum = 0.0615 (at node 13)
Injected packet length average = 1
Accepted packet length average = 1
Total in-flight flits = 25 (25 measured)
latency change    = 0.00270942
throughput change = 0.012285
Class 0:
Packet latency average = 22.7944
	minimum = 7
	maximum = 100
Network latency average = 22.7944
	minimum = 7
	maximum = 100
Slowest packet = 16331
Flit latency average = 22.7972
	minimum = 7
	maximum = 100
Slowest flit = 16331
Fragmentation average = 0
	minimum = 0
	maximum = 0
Injected packet rate average = 0.0519
	minimum = 0.0436 (at node 15)
	maximum = 0.0612 (at node 7)
Accepted packet rate average = 0.0519
	minimum = 0.044 (at node 15)
	maximum = 0.0608 (at node 13)
Injected flit rate average = 0.0519
	minimum = 0.0436 (at node 15)
	maximum = 0.0612 (at node 7)
Accepted flit rate average= 0.0519
	minimum = 0.044 (at node 15)
	maximum = 0.0608 (at node 13)
Injected packet length average = 1
Accepted packet length average = 1
Total in-flight flits = 23 (23 measured)
latency change    = 0.0179059
throughput change = 0.0197495
Draining all recorded packets ...
Draining remaining packets ...
Time taken is 4101 cycles
Class 0:
Packet latency average = 20.8099
	minimum = 7
	maximum = 61
Network latency average = 20.8099
	minimum = 7
	maximum = 61
Slowest packet = 16700
Flit latency average = 20.8099
	minimum = 7
	maximum = 61
Slowest flit = 16700
Fragmentation average = 0
	minimum = 0
	maximum = 0
Injected packet rate average = 0.0495
	minimum = 0.026 (at node 11)
	maximum = 0.074 (at node 9)
Accepted packet rate average = 0.048
	minimum = 0.024 (at node 14)
	maximum = 0.074 (at node 6)
Injected flit rate average = 0.0495
	minimum = 0.026 (at node 11)
	maximum = 0.074 (at node 9)
Accepted flit rate average= 0.048
	minimum = 0.024 (at node 14)
	maximum = 0.074 (at node 6)
Injected packet length average = 1
Accepted packet length average = 1
Total in-flight flits = 12 (0 measured)
latency change    = 1
throughput change = 1
Class 0:
Packet latency average = 22.7861
	minimum = 7
	maximum = 93
Network latency average = 22.7823
	minimum = 7
	maximum = 93
Slowest packet = 17211
Flit latency average = 22.7823
	minimum = 7
	maximum = 93
Slowest flit = 17211
Fragmentation average = 0
	minimum = 0
	maximum = 0
Injected packet rate average = 0.051125
	minimum = 0.028 (at node 11)
	maximum = 0.063 (at node 13)
Accepted packet rate average = 0.05025
	minimum = 0.028 (at node 14)
	maximum = 0.061 (at node 6)
Injected flit rate average = 0.051125
	minimum = 0.028 (at node 11)
	maximum = 0.063 (at node 13)
Accepted flit rate average= 0.05025
	minimum = 0.028 (at node 14)
	maximum = 0.061 (at node 6)
Injected packet length average = 1
Accepted packet length average = 1
Total in-flight flits = 14 (0 measured)
latency change    = 0.0867273
throughput change = 0.0447761
Class 0:
Packet latency average = 21.6399
	minimum = 7
	maximum = 73
Network latency average = 21.6399
	minimum = 7
	maximum = 73
Slowest packet = 17630
Flit latency average = 21.6399
	minimum = 7
	maximum = 73
Slowest flit = 17630
Fragmentation average = 0
	minimum = 0
	maximum = 0
Injected packet rate average = 0.049625
	minimum = 0.028 (at node 1)
	maximum = 0.062 (at node 6)
Accepted packet rate average = 0.04825
	minimum = 0.026 (at node 4)
	maximum = 0.06 (at node 7)
Injected flit rate average = 0.049625
	minimum = 0.028 (at node 1)
	maximum = 0.062 (at node 6)
Accepted flit rate average= 0.04825
	minimum = 0.026 (at node 4)
	maximum = 0.06 (at node 7)
Injected packet length average = 1
Accepted packet length average = 1
Total in-flight flits = 25 (0 measured)
latency change    = 0.0529657
throughput change = 0.0414508
Warmed up ...Time used is 1500 cycles
Class 0:
Packet latency average = 22.0272
	minimum = 7
	maximum = 95
Network latency average = 22.0272
	minimum = 7
	maximum = 95
Slowest packet = 18013
Flit latency average = 22.352
	minimum = 7
	maximum = 95
Slowest flit = 18013
Fragmentation average = 0
	minimum = 0
	maximum = 0
Injected packet rate average = 0.051875
	minimum = 0.032 (at node 1)
	maximum = 0.07 (at node 0)
Accepted packet rate average = 0.053625
	minimum = 0.036 (at node 4)
	maximum = 0.07 (at node 0)
Injected flit rate average = 0.051875
	minimum = 0.032 (at node 1)
	maximum = 0.07 (at node 0)
Accepted flit rate average= 0.053625
	minimum = 0.036 (at node 4)
	maximum = 0.07 (at node 0)
Injected packet length average = 1
Accepted packet length average = 1
Total in-flight flits = 11 (11 measured)
latency change    = 0.0175842
throughput change = 0.100233
Class 0:
Packet latency average = 21.4566
	minimum = 7
	maximum = 95
Network latency average = 21.4566
	minimum = 7
	maximum = 95
Slowest packet = 18013
Flit latency average = 21.6439
	minimum = 7
	maximum = 95
Slowest flit = 18013
Fragmentation average = 0
	minimum = 0
	maximum = 0
Injected packet rate average = 0.0509375
	minimum = 0.038 (at node 1)
	maximum = 0.059 (at node 0)
Accepted packet rate average = 0.05125
	minimum = 0.039 (at node 4)
	maximum = 0.059 (at node 0)
Injected flit rate average = 0.0509375
	minimum = 0.038 (at node 1)
	maximum = 0.059 (at node 0)
Accepted flit rate average= 0.05125
	minimum = 0.039 (at node 4)
	maximum = 0.059 (at node 0)
Injected packet length average = 1
Accepted packet length average = 1
Total in-flight flits = 20 (20 measured)
latency change    = 0.0265943
throughput change = 0.0463415
Class 0:
Packet latency average = 21.7385
	minimum = 7
	maximum = 95
Network latency average = 21.7385
	minimum = 7
	maximum = 95
Slowest packet = 18013
Flit latency average = 21.8631
	minimum = 7
	maximum = 95
Slowest flit = 18013
Fragmentation average = 0
	minimum = 0
	maximum = 0
Injected packet rate average = 0.048625
	minimum = 0.038 (at node 1)
	maximum = 0.0573333 (at node 10)
Accepted packet rate average = 0.049
	minimum = 0.0393333 (at node 4)
	maximum = 0.0573333 (at node 10)
Injected flit rate average = 0.048625
	minimum = 0.038 (at node 1)
	maximum = 0.0573333 (at node 10)
Accepted flit rate average= 0.049
	minimum = 0.0393333 (at node 4)
	maximum = 0.0573333 (at node 10)
Injected packet length average = 1
Accepted packet length average = 1
Total in-flight flits = 16 (16 measured)
latency change    = 0.0129671
throughput change = 0.0459184
Class 0:
Packet latency average = 21.7689
	minimum = 7
	maximum = 95
Network latency average = 21.7689
	minimum = 7
	maximum = 95
Slowest packet = 18013
Flit latency average = 21.8603
	minimum = 7
	maximum = 95
Slowest flit = 18013
Fragmentation average = 0
	minimum = 0
	maximum = 0
Injected packet rate average = 0.0496562
	minimum = 0.0395 (at node 1)
	maximum = 0.059 (at node 10)
Accepted packet rate average = 0.049875
	minimum = 0.0405 (at node 4)
	maximum = 0.059 (at node 10)
Injected flit rate average = 0.0496562
	minimum = 0.0395 (at node 1)
	maximum = 0.059 (at node 10)
Accepted flit rate average= 0.049875
	minimum = 0.0405 (at node 4)
	maximum = 0.059 (at node 10)
Injected packet length average = 1
Accepted packet length average = 1
Total in-flight flits = 18 (18 measured)
latency change    = 0.00139872
throughput change = 0.0175439
Draining all recorded packets ...
Draining remaining packets ...
Time taken is 3592 cycles
Class 0:
Packet latency average = 22.3428
	minimum = 7
	maximum = 76
Network latency average = 22.3428
	minimum = 7
	maximum = 76
Slowest packet = 19595
Flit latency average = 22.3428
	minimum = 7
	maximum = 76
Slowest flit = 19595
Fragmentation average = 0
	minimum = 0
	maximum = 0
Injected packet rate average = 0.050375
	minimum = 0.034 (at node 14)
	maximum = 0.062 (at node 11)
Accepted packet rate average = 0.0485
	minimum = 0.032 (at node 11)
	maximum = 0.06 (at node 7)
Injected flit rate average = 0.050375
	minimum = 0.034 (at node 14)
	maximum = 0.062 (at node 11)
Accepted flit rate average= 0.0485
	minimum = 0.032 (at node 11)
	maximum = 0.06 (at node 7)
Injected packet length average = 1
Accepted packet length average = 1
Total in-flight flits = 15 (0 measured)
latency change    = 1
throughput change = 1
Class 0:
Packet latency average = 24.2371
	minimum = 7
	maximum = 113
Network latency average = 24.1148
	minimum = 7
	maximum = 113
Slowest packet = 20046
Flit latency average = 24.1148
	minimum = 7
	maximum = 113
Slowest flit = 20046
Fragmentation average = 0
	minimum = 0
	maximum = 0
Injected packet rate average = 0.0505625
	minimum = 0.037 (at node 15)
	maximum = 0.065 (at node 11)
Accepted packet rate average = 0.0495625
	minimum = 0.036 (at node 15)
	maximum = 0.065 (at node 14)
Injected flit rate average = 0.0505625
	minimum = 0.037 (at node 15)
	maximum = 0.065 (at node 11)
Accepted flit rate average= 0.0495625
	minimum = 0.036 (at node 15)
	maximum = 0.065 (at node 14)
Injected packet length average = 1
Accepted packet length average = 1
Total in-flight flits = 16 (0 measured)
latency change    = 0.0781567
throughput change = 0.0214376
Class 0:
Packet latency average = 22.274
	minimum = 7
	maximum = 64
Network latency average = 22.2712
	minimum = 7
	maximum = 64
Slowest packet = 20342
Flit latency average = 22.2712
	minimum = 7
	maximum = 64
Slowest flit = 20342
Fragmentation average = 0
	minimum = 0
	maximum = 0
Injected packet rate average = 0.0445
	minimum = 0.018 (at node 0)
	maximum = 0.06 (at node 7)
Accepted packet rate average = 0.04425
	minimum = 0.018 (at node 0)
	maximum = 0.058 (at node 7)
Injected flit rate average = 0.0445
	minimum = 0.018 (at node 0)
	maximum = 0.06 (at node 7)
Accepted flit rate average= 0.04425
	minimum = 0.018 (at node 0)
	maximum = 0.058 (at node 7)
Injected packet length average = 1
Accepted packet length average = 1
Total in-flight flits = 18 (0 measured)
latency change    = 0.0881324
throughput change = 0.120056
Warmed up ...Time used is 1500 cycles
Class 0:
Packet latency average = 21.3261
	minimum = 7
	maximum = 76
Network latency average = 21.3261
	minimum = 7
	maximum = 76
Slowest packet = 20777
Flit latency average = 21.6658
	minimum = 7
	maximum = 76
Slowest flit = 20777
Fragmentation average = 0
	minimum = 0
	maximum = 0
Injected packet rate average = 0.049625
	minimum = 0.034 (at node 6)
	maximum = 0.064 (at node 7)
Accepted packet rate average = 0.048625
	minimum = 0.034 (at node 9)
	maximum = 0.066 (at node 13)
Injected flit rate average = 0.049625
	minimum = 0.034 (at node 6)
	maximum = 0.064 (at node 7)
Accepted flit rate average= 0.048625
	minimum = 0.034 (at node 9)
	maximum = 0.066 (at node 13)
Injected packet length average = 1
Accepted packet length average = 1
Total in-flight flits = 26 (26 measured)
latency change    = 0.0444462
throughput change = 0.0899743
Class 0:
Packet latency average = 22.1375
	minimum = 7
	maximum = 95
Network latency average = 22.1375
	minimum = 7
	maximum = 95
Slowest packet = 21063
Flit latency average = 22.2907
	minimum = 7
	maximum = 95
Slowest flit = 21063
Fragmentation average = 0
	minimum = 0
	maximum = 0
Injected packet rate average = 0.047625
	minimum = 0.033 (at node 6)
	maximum = 0.067 (at node 7)
Accepted packet rate average = 0.0479375
	minimum = 0.034 (at node 9)
	maximum = 0.068 (at node 13)
Injected flit rate average = 0.047625
	minimum = 0.033 (at node 6)
	maximum = 0.067 (at node 7)
Accepted flit rate average= 0.0479375
	minimum = 0.034 (at node 9)
	maximum = 0.068 (at node 13)
Injected packet length average = 1
Accepted packet length average = 1
Total in-flight flits = 13 (13 measured)
latency change    = 0.0366514
throughput change = 0.0143416
Class 0:
Packet latency average = 22.2096
	minimum = 7
	maximum = 95
Network latency average = 22.2096
	minimum = 7
	maximum = 95
Slowest packet = 21063
Flit latency average = 22.3091
	minimum = 7
	maximum = 95
Slowest flit = 21063
Fragmentation average = 0
	minimum = 0
	maximum = 0
Injected packet rate average = 0.048625
	minimum = 0.0393333 (at node 6)
	maximum = 0.06 (at node 7)
Accepted packet rate average = 0.0486667
	minimum = 0.04 (at node 9)
	maximum = 0.0606667 (at node 13)
Injected flit rate average = 0.048625
	minimum = 0.0393333 (at node 6)
	maximum = 0.06 (at node 7)
Accepted flit rate average= 0.0486667
	minimum = 0.04 (at node 9)
	maximum = 0.0606667 (at node 13)
Injected packet length average = 1
Accepted packet length average = 1
Total in-flight flits = 17 (17 measured)
latency change    = 0.00324403
throughput change = 0.0149829
Class 0:
Packet latency average = 22.1382
	minimum = 7
	maximum = 95
Network latency average = 22.1382
	minimum = 7
	maximum = 95
Slowest packet = 21063
Flit latency average = 22.2131
	minimum = 7
	maximum = 95
Slowest flit = 21063
Fragmentation average = 0
	minimum = 0
	maximum = 0
Injected packet rate average = 0.048875
	minimum = 0.04 (at node 9)
	maximum = 0.055 (at node 7)
Accepted packet rate average = 0.0489687
	minimum = 0.04 (at node 6)
	maximum = 0.056 (at node 3)
Injected flit rate average = 0.048875
	minimum = 0.04 (at node 9)
	maximum = 0.055 (at node 7)
Accepted flit rate average= 0.0489687
	minimum = 0.04 (at node 6)
	maximum = 0.056 (at node 3)
Injected packet length average = 1
Accepted packet length average = 1
Total in-flight flits = 15 (15 measured)
latency change    = 0.00322572
throughput change = 0.0061689
Draining all recorded packets ...
Draining remaining packets ...
Time taken is 3561 cycles
Class 0:
Packet latency average = 21.9447
	minimum = 7
	maximum = 71
Network latency average = 21.9447
	minimum = 7
	maximum = 71
Slowest packet = 22381
Flit latency average = 21.9447
	minimum = 7
	maximum = 71
Slowest flit = 22381
Fragmentation average = 0
	minimum = 0
	maximum = 0
Injected packet rate average = 0.049625
	minimum = 0.026 (at node 11)
	maximum = 0.074 (at node 9)
Accepted packet rate average = 0.0475
	minimum = 0.026 (at node 14)
	maximum = 0.072 (at node 6)
Injected flit rate average = 0.049625
	minimum = 0.026 (at node 11)
	maximum = 0.074 (at node 9)
Accepted flit rate average= 0.0475
	minimum = 0.026 (at node 14)
	maximum = 0.072 (at node 6)
Injected packet length average = 1
Accepted packet length average = 1
Total in-flight flits = 17 (0 measured)
latency change    = 1
throughput change = 1
Class 0:
Packet latency average = 20.947
	minimum = 7
	maximum = 71
Network latency average = 20.947
	minimum = 7
	maximum = 71
Slowest packet = 22381
Flit latency average = 20.947
	minimum = 7
	maximum = 71
Slowest flit = 22381
Fragmentation average = 0
	minimum = 0
	maximum = 0
Injected packet rate average = 0.0501875
	minimum = 0.035 (at node 2)
	maximum = 0.069 (at node 9)
Accepted packet rate average = 0.0495625
	minimum = 0.035 (at node 8)
	maximum = 0.068 (at node 6)
Injected flit rate average = 0.0501875
	minimum = 0.035 (at node 2)
	maximum = 0.069 (at node 9)
Accepted flit rate average= 0.0495625
	minimum = 0.035 (at node 8)
	maximum = 0.068 (at node 6)
Injected packet length average = 1
Accepted packet length average = 1
Total in-flight flits = 10 (0 measured)
latency change    = 0.0476297
throughput change = 0.0416141
Class 0:
Packet latency average = 20.5579
	minimum = 7
	maximum = 70
Network latency average = 20.5579
	minimum = 7
	maximum = 70
Slowest packet = 23378
Flit latency average = 20.5579
	minimum = 7
	maximum = 70
Slowest flit = 23378
Fragmentation average = 0
	minimum = 0
	maximum = 0
Injected packet rate average = 0.048375
	minimum = 0.034 (at node 7)
	maximum = 0.068 (at node 5)
Accepted packet rate average = 0.0475
	minimum = 0.03 (at node 13)
	maximum = 0.068 (at node 5)
Injected flit rate average = 0.048375
	minimum = 0.034 (at node 7)
	maximum = 0.068 (at node 5)
Accepted flit rate average= 0.0475
	minimum = 0.03 (at node 13)
	maximum = 0.068 (at node 5)
Injected packet length average = 1
Accepted packet length average = 1
Total in-flight flits = 17 (0 measured)
latency change    = 0.0189291
throughput change = 0.0434211
Warmed up ...Time used is 1500 cycles
Class 0:
Packet latency average = 25.0836
	minimum = 7
	maximum = 137
Network latency average = 25.0647
	minimum = 7
	maximum = 137
Slowest packet = 23610
Flit latency average = 25.1804
	minimum = 7
	maximum = 137
Slowest flit = 23610
Fragmentation average = 0
	minimum = 0
	maximum = 0
Injected packet rate average = 0.048375
	minimum = 0.038 (at node 0)
	maximum = 0.068 (at node 1)
Accepted packet rate average = 0.0485
	minimum = 0.038 (at node 0)
	maximum = 0.066 (at node 4)
Injected flit rate average = 0.048375
	minimum = 0.038 (at node 0)
	maximum = 0.068 (at node 1)
Accepted flit rate average= 0.0485
	minimum = 0.038 (at node 0)
	maximum = 0.066 (at node 4)
Injected packet length average = 1
Accepted packet length average = 1
Total in-flight flits = 16 (16 measured)
latency change    = 0.180423
throughput change = 0.0206186
Class 0:
Packet latency average = 22.6636
	minimum = 7
	maximum = 137
Network latency average = 22.6542
	minimum = 7
	maximum = 137
Slowest packet = 23610
Flit latency average = 22.7663
	minimum = 7
	maximum = 137
Slowest flit = 23610
Fragmentation average = 0
	minimum = 0
	maximum = 0
Injected packet rate average = 0.047875
	minimum = 0.038 (at node 6)
	maximum = 0.057 (at node 1)
Accepted packet rate average = 0.047875
	minimum = 0.039 (at node 6)
	maximum = 0.058 (at node 11)
Injected flit rate average = 0.047875
	minimum = 0.038 (at node 6)
	maximum = 0.057 (at node 1)
Accepted flit rate average= 0.047875
	minimum = 0.039 (at node 6)
	maximum = 0.058 (at node 11)
Injected packet length average = 1
Accepted packet length average = 1
Total in-flight flits = 17 (17 measured)
latency change    = 0.10678
throughput change = 0.0130548
Class 0:
Packet latency average = 22.3472
	minimum = 7
	maximum = 137
Network latency average = 22.3411
	minimum = 7
	maximum = 137
Slowest packet = 23610
Flit latency average = 22.4192
	minimum = 7
	maximum = 137
Slowest flit = 23610
Fragmentation average = 0
	minimum = 0
	maximum = 0
Injected packet rate average = 0.048625
	minimum = 0.0386667 (at node 9)
	maximum = 0.0586667 (at node 14)
Accepted packet rate average = 0.0487083
	minimum = 0.04 (at node 6)
	maximum = 0.06 (at node 11)
Injected flit rate average = 0.048625
	minimum = 0.0386667 (at node 9)
	maximum = 0.0586667 (at node 14)
Accepted flit rate average= 0.0487083
	minimum = 0.04 (at node 6)
	maximum = 0.06 (at node 11)
Injected packet length average = 1
Accepted packet length average = 1
Total in-flight flits = 15 (15 measured)
latency change    = 0.0141552
throughput change = 0.0171086
Class 0:
Packet latency average = 22.1397
	minimum = 7
	maximum = 137
Network latency average = 22.1353
	minimum = 7
	maximum = 137
Slowest packet = 23610
Flit latency average = 22.1953
	minimum = 7
	maximum = 137
Slowest flit = 23610
Fragmentation average = 0
	minimum = 0
	maximum = 0
Injected packet rate average = 0.049125
	minimum = 0.04 (at node 9)
	maximum = 0.061 (at node 14)
Accepted packet rate average = 0.0492812
	minimum = 0.041 (at node 6)
	maximum = 0.062 (at node 11)
Injected flit rate average = 0.049125
	minimum = 0.04 (at node 9)
	maximum = 0.061 (at node 14)
Accepted flit rate average= 0.0492812
	minimum = 0.041 (at node 6)
	maximum = 0.062 (at node 11)
Injected packet length average = 1
Accepted packet length average = 1
Total in-flight flits = 12 (12 measured)
latency change    = 0.00937132
throughput change = 0.0116254
Class 0:
Packet latency average = 22.2761
	minimum = 7
	maximum = 137
Network latency average = 22.2726
	minimum = 7
	maximum = 137
Slowest packet = 23610
Flit latency average = 22.3188
	minimum = 7
	maximum = 137
Slowest flit = 23610
Fragmentation average = 0
	minimum = 0
	maximum = 0
Injected packet rate average = 0.050075
	minimum = 0.0436 (at node 6)
	maximum = 0.0592 (at node 14)
Accepted packet rate average = 0.04995
	minimum = 0.044 (at node 9)
	maximum = 0.0596 (at node 11)
Injected flit rate average = 0.050075
	minimum = 0.0436 (at node 6)
	maximum = 0.0592 (at node 14)
Accepted flit rate average= 0.04995
	minimum = 0.044 (at node 9)
	maximum = 0.0596 (at node 11)
Injected packet length average = 1
Accepted packet length average = 1
Total in-flight flits = 22 (22 measured)
latency change    = 0.00612223
throughput change = 0.0133884
Draining all recorded packets ...
Draining remaining packets ...
Time taken is 4082 cycles
Class 0:
Packet latency average = 20.5835
	minimum = 7
	maximum = 79
Network latency average = 20.5835
	minimum = 7
	maximum = 79
Slowest packet = 25837
Flit latency average = 20.5835
	minimum = 7
	maximum = 79
Slowest flit = 25837
Fragmentation average = 0
	minimum = 0
	maximum = 0
Injected packet rate average = 0.0505
	minimum = 0.032 (at node 11)
	maximum = 0.068 (at node 6)
Accepted packet rate average = 0.048625
	minimum = 0.032 (at node 8)
	maximum = 0.066 (at node 5)
Injected flit rate average = 0.0505
	minimum = 0.032 (at node 11)
	maximum = 0.068 (at node 6)
Accepted flit rate average= 0.048625
	minimum = 0.032 (at node 8)
	maximum = 0.066 (at node 5)
Injected packet length average = 1
Accepted packet length average = 1
Total in-flight flits = 15 (0 measured)
latency change    = 1
throughput change = 1
Class 0:
Packet latency average = 21.2945
	minimum = 7
	maximum = 83
Network latency average = 21.2945
	minimum = 7
	maximum = 83
Slowest packet = 26197
Flit latency average = 21.2945
	minimum = 7
	maximum = 83
Slowest flit = 26197
Fragmentation average = 0
	minimum = 0
	maximum = 0
Injected packet rate average = 0.051125
	minimum = 0.041 (at node 8)
	maximum = 0.058 (at node 11)
Accepted packet rate average = 0.049875
	minimum = 0.039 (at node 3)
	maximum = 0.056 (at node 10)
Injected flit rate average = 0.051125
	minimum = 0.041 (at node 8)
	maximum = 0.058 (at node 11)
Accepted flit rate average= 0.049875
	minimum = 0.039 (at node 3)
	maximum = 0.056 (at node 10)
Injected packet length average = 1
Accepted packet length average = 1
Total in-flight flits = 20 (0 measured)
latency change    = 0.033386
throughput change = 0.0250627
Class 0:
Packet latency average = 23.584
	minimum = 7
	maximum = 94
Network latency average = 23.584
	minimum = 7
	maximum = 94
Slowest packet = 26611
Flit latency average = 23.584
	minimum = 7
	maximum = 94
Slowest flit = 26611
Fragmentation average = 0
	minimum = 0
	maximum = 0
Injected packet rate average = 0.048875
	minimum = 0.032 (at node 3)
	maximum = 0.07 (at node 7)
Accepted packet rate average = 0.049875
	minimum = 0.032 (at node 6)
	maximum = 0.07 (at node 11)
Injected flit rate average = 0.048875
	minimum = 0.032 (at node 3)
	maximum = 0.07 (at node 7)
Accepted flit rate average= 0.049875
	minimum = 0.032 (at node 6)
	maximum = 0.07 (at node 11)
Injected packet length average = 1
Accepted packet length average = 1
Total in-flight flits = 12 (0 measured)
latency change    = 0.0970776
throughput change = 0
Warmed up ...Time used is 1500 cycles
Class 0:
Packet latency average = 21.8525
	minimum = 7
	maximum = 75
Network latency average = 21.8525
	minimum = 7
	maximum = 75
Slowest packet = 26844
Flit latency average = 21.8862
	minimum = 7
	maximum = 75
Slowest flit = 26844
Fragmentation average = 0
	minimum = 0
	maximum = 0
Injected packet rate average = 0.048
	minimum = 0.034 (at node 0)
	maximum = 0.062 (at node 15)
Accepted packet rate average = 0.04725
	minimum = 0.034 (at node 0)
	maximum = 0.062 (at node 15)
Injected flit rate average = 0.048
	minimum = 0.034 (at node 0)
	maximum = 0.062 (at node 15)
Accepted flit rate average= 0.04725
	minimum = 0.034 (at node 0)
	maximum = 0.062 (at node 15)
Injected packet length average = 1
Accepted packet length average = 1
Total in-flight flits = 18 (18 measured)
latency change    = 0.079236
throughput change = 0.0555556
Class 0:
Packet latency average = 22.2003
	minimum = 7
	maximum = 75
Network latency average = 22.2003
	minimum = 7
	maximum = 75
Slowest packet = 26844
Flit latency average = 22.2115
	minimum = 7
	maximum = 75
Slowest flit = 26844
Fragmentation average = 0
	minimum = 0
	maximum = 0
Injected packet rate average = 0.0484375
	minimum = 0.037 (at node 4)
	maximum = 0.061 (at node 12)
Accepted packet rate average = 0.047875
	minimum = 0.036 (at node 1)
	maximum = 0.058 (at node 3)
Injected flit rate average = 0.0484375
	minimum = 0.037 (at node 4)
	maximum = 0.061 (at node 12)
Accepted flit rate average= 0.047875
	minimum = 0.036 (at node 1)
	maximum = 0.058 (at node 3)
Injected packet length average = 1
Accepted packet length average = 1
Total in-flight flits = 21 (21 measured)
latency change    = 0.0156668
throughput change = 0.0130548
Class 0:
Packet latency average = 21.8078
	minimum = 7
	maximum = 100
Network latency average = 21.8078
	minimum = 7
	maximum = 100
Slowest packet = 27558
Flit latency average = 21.8191
	minimum = 7
	maximum = 100
Slowest flit = 27558
Fragmentation average = 0
	minimum = 0
	maximum = 0
Injected packet rate average = 0.049125
	minimum = 0.0413333 (at node 13)
	maximum = 0.0593333 (at node 9)
Accepted packet rate average = 0.0488333
	minimum = 0.0426667 (at node 7)
	maximum = 0.0586667 (at node 6)
Injected flit rate average = 0.049125
	minimum = 0.0413333 (at node 13)
	maximum = 0.0593333 (at node 9)
Accepted flit rate average= 0.0488333
	minimum = 0.0426667 (at node 7)
	maximum = 0.0586667 (at node 6)
Injected packet length average = 1
Accepted packet length average = 1
Total in-flight flits = 19 (19 measured)
latency change    = 0.0179985
throughput change = 0.0196246
Class 0:
Packet latency average = 22.0044
	minimum = 7
	maximum = 100
Network latency average = 22.0044
	minimum = 7
	maximum = 100
Slowest packet = 27558
Flit latency average = 22.0112
	minimum = 7
	maximum = 100
Slowest flit = 27558
Fragmentation average = 0
	minimum = 0
	maximum = 0
Injected packet rate average = 0.0506875
	minimum = 0.045 (at node 6)
	maximum = 0.0615 (at node 9)
Accepted packet rate average = 0.0502187
	minimum = 0.044 (at node 13)
	maximum = 0.061 (at node 6)
Injected flit rate average = 0.0506875
	minimum = 0.045 (at node 6)
	maximum = 0.0615 (at node 9)
Accepted flit rate average= 0.0502187
	minimum = 0.044 (at node 13)
	maximum = 0.061 (at node 6)
Injected packet length average = 1
Accepted packet length average = 1
Total in-flight flits = 27 (27 measured)
latency change    = 0.00893595
throughput change = 0.0275876
Draining all recorded packets ...
Draining remaining packets ...
Time taken is 3576 cycles
Class 0:
Packet latency average = 20.5546
	minimum = 7
	maximum = 64
Network latency average = 20.5546
	minimum = 7
	maximum = 64
Slowest packet = 28497
Flit latency average = 20.5546
	minimum = 7
	maximum = 64
Slowest flit = 28497
Fragmentation average = 0
	minimum = 0
	maximum = 0
Injected packet rate average = 0.04825
	minimum = 0.042 (at node 4)
	maximum = 0.068 (at node 15)
Accepted packet rate average = 0.04575
	minimum = 0.038 (at node 3)
	maximum = 0.066 (at node 15)
Injected flit rate average = 0.04825
	minimum = 0.042 (at node 4)
	maximum = 0.068 (at node 15)
Accepted flit rate average= 0.04575
	minimum = 0.038 (at node 3)
	maximum = 0.066 (at node 15)
Injected packet length average = 1
Accepted packet length average = 1
Total in-flight flits = 20 (0 measured)
latency change    = 1
throughput change = 1
Class 0:
Packet latency average = 21.6232
	minimum = 7
	maximum = 64
Network latency average = 21.6232
	minimum = 7
	maximum = 64
Slowest packet = 28497
Flit latency average = 21.6232
	minimum = 7
	maximum = 64
Slowest flit = 28497
Fragmentation average = 0
	minimum = 0
	maximum = 0
Injected packet rate average = 0.0480625
	minimum = 0.037 (at node 10)
	maximum = 0.059 (at node 9)
Accepted packet rate average = 0.0469375
	minimum = 0.037 (at node 10)
	maximum = 0.057 (at node 6)
Injected flit rate average = 0.0480625
	minimum = 0.037 (at node 10)
	maximum = 0.059 (at node 9)
Accepted flit rate average= 0.0469375
	minimum = 0.037 (at node 10)
	maximum = 0.057 (at node 6)
Injected packet length average = 1
Accepted packet length average = 1
Total in-flight flits = 18 (0 measured)
latency change    = 0.0494157
throughput change = 0.0252996
Class 0:
Packet latency average = 23.6811
	minimum = 7
	maximum = 132
Network latency average = 23.4949
	minimum = 7
	maximum = 124
Slowest packet = 29268
Flit latency average = 23.4949
	minimum = 7
	maximum = 124
Slowest flit = 29268
Fragmentation average = 0
	minimum = 0
	maximum = 0
Injected packet rate average = 0.04875
	minimum = 0.028 (at node 1)
	maximum = 0.08 (at node 4)
Accepted packet rate average = 0.049
	minimum = 0.034 (at node 0)
	maximum = 0.084 (at node 1)
Injected flit rate average = 0.04875
	minimum = 0.028 (at node 1)
	maximum = 0.08 (at node 4)
Accepted flit rate average= 0.049
	minimum = 0.034 (at node 0)
	maximum = 0.084 (at node 1)
Injected packet length average = 1
Accepted packet length average = 1
Total in-flight flits = 16 (0 measured)
latency change    = 0.0869027
throughput change = 0.0420918
Warmed up ...Time used is 1500 cycles
Class 0:
Packet latency average = 23.4604
	minimum = 7
	maximum = 80
Network latency average = 23.4604
	minimum = 7
	maximum = 80
Slowest packet = 29858
Flit latency average = 23.5332
	minimum = 7
	maximum = 80
Slowest flit = 29858
Fragmentation average = 0
	minimum = 0
	maximum = 0
Injected packet rate average = 0.05075
	minimum = 0.04 (at node 2)
	maximum = 0.066 (at node 1)
Accepted packet rate average = 0.050875
	minimum = 0.038 (at node 13)
	maximum = 0.068 (at node 12)
Injected flit rate average = 0.05075
	minimum = 0.04 (at node 2)
	maximum = 0.066 (at node 1)
Accepted flit rate average= 0.050875
	minimum = 0.038 (at node 13)
	maximum = 0.068 (at node 12)
Injected packet length average = 1
Accepted packet length average = 1
Total in-flight flits = 15 (15 measured)
latency change    = 0.0094101
throughput change = 0.036855
Class 0:
Packet latency average = 22.2013
	minimum = 7
	maximum = 80
Network latency average = 22.2013
	minimum = 7
	maximum = 80
Slowest packet = 29858
Flit latency average = 22.2638
	minimum = 7
	maximum = 80
Slowest flit = 29858
Fragmentation average = 0
	minimum = 0
	maximum = 0
Injected packet rate average = 0.0501875
	minimum = 0.042 (at node 6)
	maximum = 0.062 (at node 3)
Accepted packet rate average = 0.04975
	minimum = 0.042 (at node 8)
	maximum = 0.061 (at node 12)
Injected flit rate average = 0.0501875
	minimum = 0.042 (at node 6)
	maximum = 0.062 (at node 3)
Accepted flit rate average= 0.04975
	minimum = 0.042 (at node 8)
	maximum = 0.061 (at node 12)
Injected packet length average = 1
Accepted packet length average = 1
Total in-flight flits = 23 (23 measured)
latency change    = 0.0567119
throughput change = 0.0226131
Class 0:
Packet latency average = 22.1025
	minimum = 7
	maximum = 80
Network latency average = 22.1025
	minimum = 7
	maximum = 80
Slowest packet = 29858
Flit latency average = 22.1444
	minimum = 7
	maximum = 80
Slowest flit = 29858
Fragmentation average = 0
	minimum = 0
	maximum = 0
Injected packet rate average = 0.0512917
	minimum = 0.0386667 (at node 6)
	maximum = 0.0586667 (at node 1)
Accepted packet rate average = 0.0510833
	minimum = 0.0393333 (at node 9)
	maximum = 0.0586667 (at node 12)
Injected flit rate average = 0.0512917
	minimum = 0.0386667 (at node 6)
	maximum = 0.0586667 (at node 1)
Accepted flit rate average= 0.0510833
	minimum = 0.0393333 (at node 9)
	maximum = 0.0586667 (at node 12)
Injected packet length average = 1
Accepted packet length average = 1
Total in-flight flits = 21 (21 measured)
latency change    = 0.00447021
throughput change = 0.0261011
Class 0:
Packet latency average = 22.0498
	minimum = 7
	maximum = 80
Network latency average = 22.0486
	minimum = 7
	maximum = 80
Slowest packet = 29858
Flit latency average = 22.0803
	minimum = 7
	maximum = 80
Slowest flit = 29858
Fragmentation average = 0
	minimum = 0
	maximum = 0
Injected packet rate average = 0.051375
	minimum = 0.0445 (at node 6)
	maximum = 0.0575 (at node 8)
Accepted packet rate average = 0.0513438
	minimum = 0.0445 (at node 15)
	maximum = 0.057 (at node 12)
Injected flit rate average = 0.051375
	minimum = 0.0445 (at node 6)
	maximum = 0.0575 (at node 8)
Accepted flit rate average= 0.0513438
	minimum = 0.0445 (at node 15)
	maximum = 0.057 (at node 12)
Injected packet length average = 1
Accepted packet length average = 1
Total in-flight flits = 17 (17 measured)
latency change    = 0.00238979
throughput change = 0.00507202
Class 0:
Packet latency average = 21.7834
	minimum = 7
	maximum = 80
Network latency average = 21.7824
	minimum = 7
	maximum = 80
Slowest packet = 29858
Flit latency average = 21.8103
	minimum = 7
	maximum = 80
Slowest flit = 29858
Fragmentation average = 0
	minimum = 0
	maximum = 0
Injected packet rate average = 0.050625
	minimum = 0.0436 (at node 15)
	maximum = 0.0572 (at node 8)
Accepted packet rate average = 0.0506
	minimum = 0.0436 (at node 15)
	maximum = 0.0572 (at node 14)
Injected flit rate average = 0.050625
	minimum = 0.0436 (at node 15)
	maximum = 0.0572 (at node 8)
Accepted flit rate average= 0.0506
	minimum = 0.0436 (at node 15)
	maximum = 0.0572 (at node 14)
Injected packet length average = 1
Accepted packet length average = 1
Total in-flight flits = 17 (17 measured)
latency change    = 0.0122304
throughput change = 0.0146986
Draining all recorded packets ...
Draining remaining packets ...
Time taken is 4097 cycles
Class 0:
Packet latency average = 22.2228
	minimum = 7
	maximum = 141
Network latency average = 22.2228
	minimum = 7
	maximum = 141
Slowest packet = 31856
Flit latency average = 22.2228
	minimum = 7
	maximum = 141
Slowest flit = 31856
Fragmentation average = 0
	minimum = 0
	maximum = 0
Injected packet rate average = 0.04925
	minimum = 0.034 (at node 2)
	maximum = 0.07 (at node 14)
Accepted packet rate average = 0.046
	minimum = 0.03 (at node 8)
	maximum = 0.066 (at node 11)
Injected flit rate average = 0.04925
	minimum = 0.034 (at node 2)
	maximum = 0.07 (at node 14)
Accepted flit rate average= 0.046
	minimum = 0.03 (at node 8)
	maximum = 0.066 (at node 11)
Injected packet length average = 1
Accepted packet length average = 1
Total in-flight flits = 26 (0 measured)
latency change    = 1
throughput change = 1
Class 0:
Packet latency average = 23.626
	minimum = 7
	maximum = 166
Network latency average = 23.5623
	minimum = 7
	maximum = 166
Slowest packet = 31889
Flit latency average = 23.5623
	minimum = 7
	maximum = 166
Slowest flit = 31889
Fragmentation average = 0
	minimum = 0
	maximum = 0
Injected packet rate average = 0.0495625
	minimum = 0.038 (at node 9)
	maximum = 0.069 (at node 14)
Accepted packet rate average = 0.048125
	minimum = 0.036 (at node 6)
	maximum = 0.069 (at node 11)
Injected flit rate average = 0.0495625
	minimum = 0.038 (at node 9)
	maximum = 0.069 (at node 14)
Accepted flit rate average= 0.048125
	minimum = 0.036 (at node 6)
	maximum = 0.069 (at node 11)
Injected packet length average = 1
Accepted packet length average = 1
Total in-flight flits = 23 (0 measured)
latency change    = 0.0593901
throughput change = 0.0441558
Class 0:
Packet latency average = 22.9303
	minimum = 7
	maximum = 105
Network latency average = 22.9231
	minimum = 7
	maximum = 105
Slowest packet = 32532
Flit latency average = 22.9231
	minimum = 7
	maximum = 105
Slowest flit = 32532
Fragmentation average = 0
	minimum = 0
	maximum = 0
Injected packet rate average = 0.051
	minimum = 0.034 (at node 9)
	maximum = 0.072 (at node 7)
Accepted packet rate average = 0.052
	minimum = 0.038 (at node 6)
	maximum = 0.072 (at node 13)
Injected flit rate average = 0.051
	minimum = 0.034 (at node 9)
	maximum = 0.072 (at node 7)
Accepted flit rate average= 0.052
	minimum = 0.038 (at node 6)
	maximum = 0.072 (at node 13)
Injected packet length average = 1
Accepted packet length average = 1
Total in-flight flits = 15 (0 measured)
latency change    = 0.0303392
throughput change = 0.0745192
Warmed up ...Time used is 1500 cycles
Class 0:
Packet latency average = 21.4463
	minimum = 7
	maximum = 89
Network latency average = 21.4463
	minimum = 7
	maximum = 89
Slowest packet = 33082
Flit latency average = 21.7154
	minimum = 7
	maximum = 89
Slowest flit = 33082
Fragmentation average = 0
	minimum = 0
	maximum = 0
Injected packet rate average = 0.04725
	minimum = 0.026 (at node 15)
	maximum = 0.068 (at node 10)
Accepted packet rate average = 0.046125
	minimum = 0.024 (at node 15)
	maximum = 0.068 (at node 10)
Injected flit rate average = 0.04725
	minimum = 0.026 (at node 15)
	maximum = 0.068 (at node 10)
Accepted flit rate average= 0.046125
	minimum = 0.024 (at node 15)
	maximum = 0.068 (at node 10)
Injected packet length average = 1
Accepted packet length average = 1
Total in-flight flits = 24 (24 measured)
latency change    = 0.0691942
throughput change = 0.127371
Class 0:
Packet latency average = 22.3873
	minimum = 7
	maximum = 115
Network latency average = 22.3873
	minimum = 7
	maximum = 115
Slowest packet = 33103
Flit latency average = 22.4956
	minimum = 7
	maximum = 115
Slowest flit = 33103
Fragmentation average = 0
	minimum = 0
	maximum = 0
Injected packet rate average = 0.0495
	minimum = 0.039 (at node 15)
	maximum = 0.063 (at node 13)
Accepted packet rate average = 0.0491875
	minimum = 0.039 (at node 15)
	maximum = 0.061 (at node 7)
Injected flit rate average = 0.0495
	minimum = 0.039 (at node 15)
	maximum = 0.063 (at node 13)
Accepted flit rate average= 0.0491875
	minimum = 0.039 (at node 15)
	maximum = 0.061 (at node 7)
Injected packet length average = 1
Accepted packet length average = 1
Total in-flight flits = 20 (20 measured)
latency change    = 0.0420318
throughput change = 0.0622618
Class 0:
Packet latency average = 22.8184
	minimum = 7
	maximum = 115
Network latency average = 22.8184
	minimum = 7
	maximum = 115
Slowest packet = 33103
Flit latency average = 22.8847
	minimum = 7
	maximum = 115
Slowest flit = 33103
Fragmentation average = 0
	minimum = 0
	maximum = 0
Injected packet rate average = 0.0496667
	minimum = 0.0386667 (at node 3)
	maximum = 0.066 (at node 13)
Accepted packet rate average = 0.0495
	minimum = 0.04 (at node 12)
	maximum = 0.0666667 (at node 7)
Injected flit rate average = 0.0496667
	minimum = 0.0386667 (at node 3)
	maximum = 0.066 (at node 13)
Accepted flit rate average= 0.0495
	minimum = 0.04 (at node 12)
	maximum = 0.0666667 (at node 7)
Injected packet length average = 1
Accepted packet length average = 1
Total in-flight flits = 19 (19 measured)
latency change    = 0.018893
throughput change = 0.00631313
Class 0:
Packet latency average = 22.5837
	minimum = 7
	maximum = 115
Network latency average = 22.5837
	minimum = 7
	maximum = 115
Slowest packet = 33103
Flit latency average = 22.6344
	minimum = 7
	maximum = 115
Slowest flit = 33103
Fragmentation average = 0
	minimum = 0
	maximum = 0
Injected packet rate average = 0.0506562
	minimum = 0.044 (at node 11)
	maximum = 0.064 (at node 13)
Accepted packet rate average = 0.0506875
	minimum = 0.0445 (at node 14)
	maximum = 0.065 (at node 7)
Injected flit rate average = 0.0506562
	minimum = 0.044 (at node 11)
	maximum = 0.064 (at node 13)
Accepted flit rate average= 0.0506875
	minimum = 0.0445 (at node 14)
	maximum = 0.065 (at node 7)
Injected packet length average = 1
Accepted packet length average = 1
Total in-flight flits = 14 (14 measured)
latency change    = 0.0103932
throughput change = 0.0234279
Class 0:
Packet latency average = 22.3174
	minimum = 7
	maximum = 115
Network latency average = 22.3174
	minimum = 7
	maximum = 115
Slowest packet = 33103
Flit latency average = 22.36
	minimum = 7
	maximum = 115
Slowest flit = 33103
Fragmentation average = 0
	minimum = 0
	maximum = 0
Injected packet rate average = 0.050525
	minimum = 0.0452 (at node 1)
	maximum = 0.0596 (at node 13)
Accepted packet rate average = 0.05055
	minimum = 0.0444 (at node 4)
	maximum = 0.06 (at node 7)
Injected flit rate average = 0.050525
	minimum = 0.0452 (at node 1)
	maximum = 0.0596 (at node 13)
Accepted flit rate average= 0.05055
	minimum = 0.0444 (at node 4)
	maximum = 0.06 (at node 7)
Injected packet length average = 1
Accepted packet length average = 1
Total in-flight flits = 14 (14 measured)
latency change    = 0.0119327
throughput change = 0.00272008
Draining all recorded packets ...
Draining remaining packets ...
Time taken is 4081 cycles
Class 0:
Packet latency average = 20.6504
	minimum = 7
	maximum = 75
Network latency average = 20.6427
	minimum = 7
	maximum = 75
Slowest packet = 35151
Flit latency average = 20.6427
	minimum = 7
	maximum = 75
Slowest flit = 35151
Fragmentation average = 0
	minimum = 0
	maximum = 0
Injected packet rate average = 0.05
	minimum = 0.034 (at node 3)
	maximum = 0.066 (at node 4)
Accepted packet rate average = 0.048625
	minimum = 0.032 (at node 12)
	maximum = 0.066 (at node 1)
Injected flit rate average = 0.05
	minimum = 0.034 (at node 3)
	maximum = 0.066 (at node 4)
Accepted flit rate average= 0.048625
	minimum = 0.032 (at node 12)
	maximum = 0.066 (at node 1)
Injected packet length average = 1
Accepted packet length average = 1
Total in-flight flits = 11 (0 measured)
latency change    = 1
throughput change = 1
Class 0:
Packet latency average = 21.6503
	minimum = 7
	maximum = 102
Network latency average = 21.6465
	minimum = 7
	maximum = 102
Slowest packet = 35328
Flit latency average = 21.6465
	minimum = 7
	maximum = 102
Slowest flit = 35328
Fragmentation average = 0
	minimum = 0
	maximum = 0
Injected packet rate average = 0.0508125
	minimum = 0.041 (at node 3)
	maximum = 0.06 (at node 2)
Accepted packet rate average = 0.0496875
	minimum = 0.039 (at node 12)
	maximum = 0.057 (at node 8)
Injected flit rate average = 0.0508125
	minimum = 0.041 (at node 3)
	maximum = 0.06 (at node 2)
Accepted flit rate average= 0.0496875
	minimum = 0.039 (at node 12)
	maximum = 0.057 (at node 8)
Injected packet length average = 1
Accepted packet length average = 1
Total in-flight flits = 18 (0 measured)
latency change    = 0.0461854
throughput change = 0.0213836
Class 0:
Packet latency average = 21.7614
	minimum = 7
	maximum = 66
Network latency average = 21.7614
	minimum = 7
	maximum = 66
Slowest packet = 35701
Flit latency average = 21.7614
	minimum = 7
	maximum = 66
Slowest flit = 35701
Fragmentation average = 0
	minimum = 0
	maximum = 0
Injected packet rate average = 0.048625
	minimum = 0.036 (at node 2)
	maximum = 0.062 (at node 3)
Accepted packet rate average = 0.04925
	minimum = 0.036 (at node 9)
	maximum = 0.062 (at node 12)
Injected flit rate average = 0.048625
	minimum = 0.036 (at node 2)
	maximum = 0.062 (at node 3)
Accepted flit rate average= 0.04925
	minimum = 0.036 (at node 9)
	maximum = 0.062 (at node 12)
Injected packet length average = 1
Accepted packet length average = 1
Total in-flight flits = 13 (0 measured)
latency change    = 0.00510568
throughput change = 0.00888325
Warmed up ...Time used is 1500 cycles
Class 0:
Packet latency average = 20.0104
	minimum = 7
	maximum = 64
Network latency average = 20.0104
	minimum = 7
	maximum = 64
Slowest packet = 36115
Flit latency average = 20.2343
	minimum = 7
	maximum = 64
Slowest flit = 36115
Fragmentation average = 0
	minimum = 0
	maximum = 0
Injected packet rate average = 0.0495
	minimum = 0.032 (at node 6)
	maximum = 0.066 (at node 0)
Accepted packet rate average = 0.049625
	minimum = 0.03 (at node 9)
	maximum = 0.064 (at node 0)
Injected flit rate average = 0.0495
	minimum = 0.032 (at node 6)
	maximum = 0.066 (at node 0)
Accepted flit rate average= 0.049625
	minimum = 0.03 (at node 9)
	maximum = 0.064 (at node 0)
Injected packet length average = 1
Accepted packet length average = 1
Total in-flight flits = 12 (12 measured)
latency change    = 0.0875047
throughput change = 0.00755668
Class 0:
Packet latency average = 22.1867
	minimum = 7
	maximum = 86
Network latency average = 22.1867
	minimum = 7
	maximum = 86
Slowest packet = 36731
Flit latency average = 22.2603
	minimum = 7
	maximum = 86
Slowest flit = 36731
Fragmentation average = 0
	minimum = 0
	maximum = 0
Injected packet rate average = 0.0518125
	minimum = 0.038 (at node 6)
	maximum = 0.066 (at node 7)
Accepted packet rate average = 0.051375
	minimum = 0.036 (at node 9)
	maximum = 0.064 (at node 13)
Injected flit rate average = 0.0518125
	minimum = 0.038 (at node 6)
	maximum = 0.066 (at node 7)
Accepted flit rate average= 0.051375
	minimum = 0.036 (at node 9)
	maximum = 0.064 (at node 13)
Injected packet length average = 1
Accepted packet length average = 1
Total in-flight flits = 20 (20 measured)
latency change    = 0.0980875
throughput change = 0.0340633
Class 0:
Packet latency average = 23.1891
	minimum = 7
	maximum = 96
Network latency average = 23.1891
	minimum = 7
	maximum = 96
Slowest packet = 37197
Flit latency average = 23.2273
	minimum = 7
	maximum = 96
Slowest flit = 37197
Fragmentation average = 0
	minimum = 0
	maximum = 0
Injected packet rate average = 0.0524167
	minimum = 0.042 (at node 6)
	maximum = 0.066 (at node 7)
Accepted packet rate average = 0.051875
	minimum = 0.0406667 (at node 9)
	maximum = 0.0653333 (at node 13)
Injected flit rate average = 0.0524167
	minimum = 0.042 (at node 6)
	maximum = 0.066 (at node 7)
Accepted flit rate average= 0.051875
	minimum = 0.0406667 (at node 9)
	maximum = 0.0653333 (at node 13)
Injected packet length average = 1
Accepted packet length average = 1
Total in-flight flits = 26 (26 measured)
latency change    = 0.0432303
throughput change = 0.00963855
Class 0:
Packet latency average = 22.7995
	minimum = 7
	maximum = 134
Network latency average = 22.7995
	minimum = 7
	maximum = 134
Slowest packet = 37208
[...]
	minimum = 7
	maximum = 126
Slowest flit = 139418
Fragmentation average = 0
	minimum = 0
	maximum = 0
Injected packet rate average = 0.0525625
	minimum = 0.038 (at node 15)
	maximum = 0.068 (at node 7)
Accepted packet rate average = 0.0505
	minimum = 0.037 (at node 15)
	maximum = 0.065 (at node 13)
Injected flit rate average = 0.0525625
	minimum = 0.038 (at node 15)
	maximum = 0.068 (at node 7)
Accepted flit rate average= 0.0505
	minimum = 0.037 (at node 15)
	maximum = 0.065 (at node 13)
Injected packet length average = 1
Accepted packet length average = 1
Total in-flight flits = 34 (0 measured)
latency change    = 0.168865
throughput change = 0.108911
Class 0:
Packet latency average = 22.9386
	minimum = 7
	maximum = 135
Network latency average = 22.8698
	minimum = 7
	maximum = 135
Slowest packet = 139536
Flit latency average = 22.8698
	minimum = 7
	maximum = 135
Slowest flit = 139536
Fragmentation average = 0
	minimum = 0
	maximum = 0
Injected packet rate average = 0.04875
	minimum = 0.032 (at node 1)
	maximum = 0.068 (at node 11)
Accepted packet rate average = 0.050875
	minimum = 0.036 (at node 15)
	maximum = 0.07 (at node 14)
Injected flit rate average = 0.04875
	minimum = 0.032 (at node 1)
	maximum = 0.068 (at node 11)
Accepted flit rate average= 0.050875
	minimum = 0.036 (at node 15)
	maximum = 0.07 (at node 14)
Injected packet length average = 1
Accepted packet length average = 1
Total in-flight flits = 16 (0 measured)
latency change    = 0.145494
throughput change = 0.00737101
Warmed up ...Time used is 1500 cycles
Class 0:
Packet latency average = 20.0817
	minimum = 7
	maximum = 52
Network latency average = 20.0817
	minimum = 7
	maximum = 52
Slowest packet = 140292
Flit latency average = 20.345
	minimum = 7
	maximum = 52
Slowest flit = 140292
Fragmentation average = 0
	minimum = 0
	maximum = 0
Injected packet rate average = 0.04625
	minimum = 0.038 (at node 3)
	maximum = 0.06 (at node 5)
Accepted packet rate average = 0.046375
	minimum = 0.034 (at node 12)
	maximum = 0.062 (at node 5)
Injected flit rate average = 0.04625
	minimum = 0.038 (at node 3)
	maximum = 0.06 (at node 5)
Accepted flit rate average= 0.046375
	minimum = 0.034 (at node 12)
	maximum = 0.062 (at node 5)
Injected packet length average = 1
Accepted packet length average = 1
Total in-flight flits = 15 (15 measured)
latency change    = 0.142263
throughput change = 0.097035
Class 0:
Packet latency average = 22.2463
	minimum = 7
	maximum = 96
Network latency average = 22.2209
	minimum = 7
	maximum = 96
Slowest packet = 140585
Flit latency average = 22.3041
	minimum = 7
	maximum = 96
Slowest flit = 140585
Fragmentation average = 0
	minimum = 0
	maximum = 0
Injected packet rate average = 0.048125
	minimum = 0.041 (at node 10)
	maximum = 0.059 (at node 2)
Accepted packet rate average = 0.0476875
	minimum = 0.041 (at node 0)
	maximum = 0.062 (at node 8)
Injected flit rate average = 0.048125
	minimum = 0.041 (at node 10)
	maximum = 0.059 (at node 2)
Accepted flit rate average= 0.0476875
	minimum = 0.041 (at node 0)
	maximum = 0.062 (at node 8)
Injected packet length average = 1
Accepted packet length average = 1
Total in-flight flits = 23 (23 measured)
latency change    = 0.0973028
throughput change = 0.0275229
Class 0:
Packet latency average = 22.4531
	minimum = 7
	maximum = 110
Network latency average = 22.3944
	minimum = 7
	maximum = 109
Slowest packet = 140786
Flit latency average = 22.4468
	minimum = 7
	maximum = 109
Slowest flit = 140786
Fragmentation average = 0
	minimum = 0
	maximum = 0
Injected packet rate average = 0.048375
	minimum = 0.04 (at node 8)
	maximum = 0.0586667 (at node 14)
Accepted packet rate average = 0.0482083
	minimum = 0.04 (at node 2)
	maximum = 0.058 (at node 11)
Injected flit rate average = 0.048375
	minimum = 0.04 (at node 8)
	maximum = 0.0586667 (at node 14)
Accepted flit rate average= 0.0482083
	minimum = 0.04 (at node 2)
	maximum = 0.058 (at node 11)
Injected packet length average = 1
Accepted packet length average = 1
Total in-flight flits = 20 (20 measured)
latency change    = 0.00920998
throughput change = 0.0108038
Class 0:
Packet latency average = 22.2991
	minimum = 7
	maximum = 110
Network latency average = 22.2485
	minimum = 7
	maximum = 109
Slowest packet = 140786
Flit latency average = 22.2895
	minimum = 7
	maximum = 109
Slowest flit = 140786
Fragmentation average = 0
	minimum = 0
	maximum = 0
Injected packet rate average = 0.0479062
	minimum = 0.0405 (at node 8)
	maximum = 0.058 (at node 14)
Accepted packet rate average = 0.0480312
	minimum = 0.04 (at node 2)
	maximum = 0.0575 (at node 11)
Injected flit rate average = 0.0479062
	minimum = 0.0405 (at node 8)
	maximum = 0.058 (at node 14)
Accepted flit rate average= 0.0480312
	minimum = 0.04 (at node 2)
	maximum = 0.0575 (at node 11)
Injected packet length average = 1
Accepted packet length average = 1
Total in-flight flits = 12 (12 measured)
latency change    = 0.00690457
throughput change = 0.00368684
Class 0:
Packet latency average = 22.548
	minimum = 7
	maximum = 110
Network latency average = 22.5071
	minimum = 7
	maximum = 109
Slowest packet = 140786
Flit latency average = 22.5377
	minimum = 7
	maximum = 109
Slowest flit = 140786
Fragmentation average = 0
	minimum = 0
	maximum = 0
Injected packet rate average = 0.04815
	minimum = 0.042 (at node 5)
	maximum = 0.0584 (at node 14)
Accepted packet rate average = 0.048025
	minimum = 0.0424 (at node 5)
	maximum = 0.058 (at node 11)
Injected flit rate average = 0.04815
	minimum = 0.042 (at node 5)
	maximum = 0.0584 (at node 14)
Accepted flit rate average= 0.048025
	minimum = 0.0424 (at node 5)
	maximum = 0.058 (at node 11)
Injected packet length average = 1
Accepted packet length average = 1
Total in-flight flits = 21 (21 measured)
latency change    = 0.011038
throughput change = 0.000130141
Draining all recorded packets ...
Draining remaining packets ...
Time taken is 4074 cycles
Class 0:
Packet latency average = 21.1503
	minimum = 7
	maximum = 61
Network latency average = 21.1503
	minimum = 7
	maximum = 61
Slowest packet = 142137
Flit latency average = 21.1503
	minimum = 7
	maximum = 61
Slowest flit = 142137
Fragmentation average = 0
	minimum = 0
	maximum = 0
Injected packet rate average = 0.0505
	minimum = 0.028 (at node 3)
	maximum = 0.066 (at node 8)
Accepted packet rate average = 0.04825
	minimum = 0.028 (at node 12)
	maximum = 0.066 (at node 2)
Injected flit rate average = 0.0505
	minimum = 0.028 (at node 3)
	maximum = 0.066 (at node 8)
Accepted flit rate average= 0.04825
	minimum = 0.028 (at node 12)
	maximum = 0.066 (at node 2)
Injected packet length average = 1
Accepted packet length average = 1
Total in-flight flits = 18 (0 measured)
latency change    = 1
throughput change = 1
Class 0:
Packet latency average = 22.1166
	minimum = 7
	maximum = 88
Network latency average = 22.1166
	minimum = 7
	maximum = 88
Slowest packet = 142538
Flit latency average = 22.1166
	minimum = 7
	maximum = 88
Slowest flit = 142538
Fragmentation average = 0
	minimum = 0
	maximum = 0
Injected packet rate average = 0.05025
	minimum = 0.039 (at node 3)
	maximum = 0.06 (at node 4)
Accepted packet rate average = 0.0493125
	minimum = 0.037 (at node 12)
	maximum = 0.058 (at node 1)
Injected flit rate average = 0.05025
	minimum = 0.039 (at node 3)
	maximum = 0.06 (at node 4)
Accepted flit rate average= 0.0493125
	minimum = 0.037 (at node 12)
	maximum = 0.058 (at node 1)
Injected packet length average = 1
Accepted packet length average = 1
Total in-flight flits = 15 (0 measured)
latency change    = 0.0436932
throughput change = 0.0215463
Class 0:
Packet latency average = 21.7766
	minimum = 7
	maximum = 63
Network latency average = 21.7766
	minimum = 7
	maximum = 63
Slowest packet = 143080
Flit latency average = 21.7766
	minimum = 7
	maximum = 63
Slowest flit = 143080
Fragmentation average = 0
	minimum = 0
	maximum = 0
Injected packet rate average = 0.04925
	minimum = 0.038 (at node 2)
	maximum = 0.068 (at node 5)
Accepted packet rate average = 0.04925
	minimum = 0.04 (at node 0)
	maximum = 0.068 (at node 5)
Injected flit rate average = 0.04925
	minimum = 0.038 (at node 2)
	maximum = 0.068 (at node 5)
Accepted flit rate average= 0.04925
	minimum = 0.04 (at node 0)
	maximum = 0.068 (at node 5)
Injected packet length average = 1
Accepted packet length average = 1
Total in-flight flits = 15 (0 measured)
latency change    = 0.0156109
throughput change = 0.00126904
Warmed up ...Time used is 1500 cycles
Class 0:
Packet latency average = 21.0127
	minimum = 7
	maximum = 82
Network latency average = 21.0127
	minimum = 7
	maximum = 82
Slowest packet = 143266
Flit latency average = 21.1756
	minimum = 7
	maximum = 82
Slowest flit = 143266
Fragmentation average = 0
	minimum = 0
	maximum = 0
Injected packet rate average = 0.0505
	minimum = 0.038 (at node 14)
	maximum = 0.068 (at node 6)
Accepted packet rate average = 0.05125
	minimum = 0.038 (at node 11)
	maximum = 0.07 (at node 9)
Injected flit rate average = 0.0505
	minimum = 0.038 (at node 14)
	maximum = 0.068 (at node 6)
Accepted flit rate average= 0.05125
	minimum = 0.038 (at node 11)
	maximum = 0.07 (at node 9)
Injected packet length average = 1
Accepted packet length average = 1
Total in-flight flits = 9 (9 measured)
latency change    = 0.0363586
throughput change = 0.0390244
Class 0:
Packet latency average = 21.575
	minimum = 7
	maximum = 85
Network latency average = 21.575
	minimum = 7
	maximum = 85
Slowest packet = 143793
Flit latency average = 21.6496
	minimum = 7
	maximum = 85
Slowest flit = 143793
Fragmentation average = 0
	minimum = 0
	maximum = 0
Injected packet rate average = 0.04875
	minimum = 0.039 (at node 12)
	maximum = 0.058 (at node 6)
Accepted packet rate average = 0.048875
	minimum = 0.04 (at node 3)
	maximum = 0.059 (at node 9)
Injected flit rate average = 0.04875
	minimum = 0.039 (at node 12)
	maximum = 0.058 (at node 6)
Accepted flit rate average= 0.048875
	minimum = 0.04 (at node 3)
	maximum = 0.059 (at node 9)
Injected packet length average = 1
Accepted packet length average = 1
Total in-flight flits = 13 (13 measured)
latency change    = 0.026063
throughput change = 0.0485934
Class 0:
Packet latency average = 20.8953
	minimum = 7
	maximum = 85
Network latency average = 20.8953
	minimum = 7
	maximum = 85
Slowest packet = 143793
Flit latency average = 20.9525
	minimum = 7
	maximum = 85
Slowest flit = 143793
Fragmentation average = 0
	minimum = 0
	maximum = 0
Injected packet rate average = 0.0496667
	minimum = 0.04 (at node 12)
	maximum = 0.062 (at node 6)
Accepted packet rate average = 0.0499583
	minimum = 0.0406667 (at node 3)
	maximum = 0.0626667 (at node 9)
Injected flit rate average = 0.0496667
	minimum = 0.04 (at node 12)
	maximum = 0.062 (at node 6)
Accepted flit rate average= 0.0499583
	minimum = 0.0406667 (at node 3)
	maximum = 0.0626667 (at node 9)
Injected packet length average = 1
Accepted packet length average = 1
Total in-flight flits = 8 (8 measured)
latency change    = 0.0325288
throughput change = 0.0216847
Draining all recorded packets ...
Draining remaining packets ...
Time taken is 3057 cycles
Class 0:
Packet latency average = 22.1944
	minimum = 7
	maximum = 71
Network latency average = 22.1919
	minimum = 7
	maximum = 71
Slowest packet = 144694
Flit latency average = 22.1919
	minimum = 7
	maximum = 71
Slowest flit = 144694
Fragmentation average = 0
	minimum = 0
	maximum = 0
Injected packet rate average = 0.052
	minimum = 0.032 (at node 5)
	maximum = 0.078 (at node 6)
Accepted packet rate average = 0.0495
	minimum = 0.032 (at node 5)
	maximum = 0.076 (at node 9)
Injected flit rate average = 0.052
	minimum = 0.032 (at node 5)
	maximum = 0.078 (at node 6)
Accepted flit rate average= 0.0495
	minimum = 0.032 (at node 5)
	maximum = 0.076 (at node 9)
Injected packet length average = 1
Accepted packet length average = 1
Total in-flight flits = 20 (0 measured)
latency change    = 1
throughput change = 1
Class 0:
Packet latency average = 22.3506
	minimum = 7
	maximum = 91
Network latency average = 22.3494
	minimum = 7
	maximum = 91
Slowest packet = 144781
Flit latency average = 22.3494
	minimum = 7
	maximum = 91
Slowest flit = 144781
Fragmentation average = 0
	minimum = 0
	maximum = 0
Injected packet rate average = 0.0505
	minimum = 0.038 (at node 12)
	maximum = 0.066 (at node 6)
Accepted packet rate average = 0.049375
	minimum = 0.035 (at node 3)
	maximum = 0.066 (at node 9)
Injected flit rate average = 0.0505
	minimum = 0.038 (at node 12)
	maximum = 0.066 (at node 6)
Accepted flit rate average= 0.049375
	minimum = 0.035 (at node 3)
	maximum = 0.066 (at node 9)
Injected packet length average = 1
Accepted packet length average = 1
Total in-flight flits = 18 (0 measured)
latency change    = 0.0069881
throughput change = 0.00253165
Class 0:
Packet latency average = 23.1414
	minimum = 7
	maximum = 132
Network latency average = 23.1237
	minimum = 7
	maximum = 132
Slowest packet = 145338
Flit latency average = 23.1237
	minimum = 7
	maximum = 132
Slowest flit = 145338
Fragmentation average = 0
	minimum = 0
	maximum = 0
Injected packet rate average = 0.049375
	minimum = 0.03 (at node 8)
	maximum = 0.068 (at node 0)
Accepted packet rate average = 0.0495
	minimum = 0.034 (at node 2)
	maximum = 0.066 (at node 0)
Injected flit rate average = 0.049375
	minimum = 0.03 (at node 8)
	maximum = 0.068 (at node 0)
Accepted flit rate average= 0.0495
	minimum = 0.034 (at node 2)
	maximum = 0.066 (at node 0)
Injected packet length average = 1
Accepted packet length average = 1
Total in-flight flits = 17 (0 measured)
latency change    = 0.0341717
throughput change = 0.00252525
Warmed up ...Time used is 1500 cycles
Class 0:
Packet latency average = 22.2705
	minimum = 7
	maximum = 87
Network latency average = 22.2705
	minimum = 7
	maximum = 87
Slowest packet = 145688
Flit latency average = 22.7024
	minimum = 7
	maximum = 87
Slowest flit = 145688
Fragmentation average = 0
	minimum = 0
	maximum = 0
Injected packet rate average = 0.05275
	minimum = 0.038 (at node 15)
	maximum = 0.076 (at node 8)
Accepted packet rate average = 0.0525
	minimum = 0.038 (at node 15)
	maximum = 0.07 (at node 2)
Injected flit rate average = 0.05275
	minimum = 0.038 (at node 15)
	maximum = 0.076 (at node 8)
Accepted flit rate average= 0.0525
	minimum = 0.038 (at node 15)
	maximum = 0.07 (at node 2)
Injected packet length average = 1
Accepted packet length average = 1
Total in-flight flits = 19 (19 measured)
latency change    = 0.0391075
throughput change = 0.0571429
Class 0:
Packet latency average = 23.6519
	minimum = 7
	maximum = 104
Network latency average = 23.6507
	minimum = 7
	maximum = 104
Slowest packet = 146370
Flit latency average = 23.8359
	minimum = 7
	maximum = 104
Slowest flit = 146370
Fragmentation average = 0
	minimum = 0
	maximum = 0
Injected packet rate average = 0.0534375
	minimum = 0.035 (at node 11)
	maximum = 0.065 (at node 7)
Accepted packet rate average = 0.0533125
	minimum = 0.035 (at node 14)
	maximum = 0.063 (at node 13)
Injected flit rate average = 0.0534375
	minimum = 0.035 (at node 11)
	maximum = 0.065 (at node 7)
Accepted flit rate average= 0.0533125
	minimum = 0.035 (at node 14)
	maximum = 0.063 (at node 13)
Injected packet length average = 1
Accepted packet length average = 1
Total in-flight flits = 19 (19 measured)
latency change    = 0.0584072
throughput change = 0.0152403
Class 0:
Packet latency average = 25.038
	minimum = 7
	maximum = 164
Network latency average = 24.6989
	minimum = 7
	maximum = 156
Slowest packet = 146589
Flit latency average = 24.8084
	minimum = 7
	maximum = 156
Slowest flit = 146589
Fragmentation average = 0
	minimum = 0
	maximum = 0
Injected packet rate average = 0.0532917
	minimum = 0.0393333 (at node 11)
	maximum = 0.0593333 (at node 13)
Accepted packet rate average = 0.0532917
	minimum = 0.0393333 (at node 14)
	maximum = 0.0606667 (at node 7)
Injected flit rate average = 0.0532917
	minimum = 0.0393333 (at node 11)
	maximum = 0.0593333 (at node 13)
Accepted flit rate average= 0.0532917
	minimum = 0.0393333 (at node 14)
	maximum = 0.0606667 (at node 7)
Injected packet length average = 1
Accepted packet length average = 1
Total in-flight flits = 17 (17 measured)
latency change    = 0.0553606
throughput change = 0.00039093
Class 0:
Packet latency average = 24.3984
	minimum = 7
	maximum = 164
Network latency average = 24.1476
	minimum = 7
	maximum = 156
Slowest packet = 146589
Flit latency average = 24.2343
	minimum = 7
	maximum = 156
Slowest flit = 146589
Fragmentation average = 0
	minimum = 0
	maximum = 0
Injected packet rate average = 0.0539063
	minimum = 0.041 (at node 11)
	maximum = 0.061 (at node 13)
Accepted packet rate average = 0.053875
	minimum = 0.041 (at node 14)
	maximum = 0.0615 (at node 7)
Injected flit rate average = 0.0539063
	minimum = 0.041 (at node 11)
	maximum = 0.061 (at node 13)
Accepted flit rate average= 0.053875
	minimum = 0.041 (at node 14)
	maximum = 0.0615 (at node 7)
Injected packet length average = 1
Accepted packet length average = 1
Total in-flight flits = 18 (18 measured)
latency change    = 0.026218
throughput change = 0.0108275
Class 0:
Packet latency average = 23.9132
	minimum = 7
	maximum = 164
Network latency average = 23.7123
	minimum = 7
	maximum = 156
Slowest packet = 146589
Flit latency average = 23.7854
	minimum = 7
	maximum = 156
Slowest flit = 146589
Fragmentation average = 0
	minimum = 0
	maximum = 0
Injected packet rate average = 0.0537
	minimum = 0.0428 (at node 11)
	maximum = 0.0596 (at node 13)
Accepted packet rate average = 0.0537
	minimum = 0.0428 (at node 14)
	maximum = 0.06 (at node 3)
Injected flit rate average = 0.0537
	minimum = 0.0428 (at node 11)
	maximum = 0.0596 (at node 13)
Accepted flit rate average= 0.0537
	minimum = 0.0428 (at node 14)
	maximum = 0.06 (at node 3)
Injected packet length average = 1
Accepted packet length average = 1
Total in-flight flits = 17 (17 measured)
latency change    = 0.0202889
throughput change = 0.00325885
Class 0:
Packet latency average = 24.2338
	minimum = 7
	maximum = 176
Network latency average = 23.9506
	minimum = 7
	maximum = 176
Slowest packet = 147821
Flit latency average = 24.0101
	minimum = 7
	maximum = 176
Slowest flit = 147821
Fragmentation average = 0
	minimum = 0
	maximum = 0
Injected packet rate average = 0.0535417
	minimum = 0.044 (at node 11)
	maximum = 0.0593333 (at node 13)
Accepted packet rate average = 0.0534583
	minimum = 0.0433333 (at node 14)
	maximum = 0.0596667 (at node 7)
Injected flit rate average = 0.0535417
	minimum = 0.044 (at node 11)
	maximum = 0.0593333 (at node 13)
Accepted flit rate average= 0.0534583
	minimum = 0.0433333 (at node 14)
	maximum = 0.0596667 (at node 7)
Injected packet length average = 1
Accepted packet length average = 1
Total in-flight flits = 21 (21 measured)
latency change    = 0.0132307
throughput change = 0.00452065
Draining all recorded packets ...
Draining remaining packets ...
Time taken is 4603 cycles
====== Overall Traffic Statistics ======
====== Traffic class 0 ======
Packet latency average = 22.0863 (50 samples)
	minimum = 7 (50 samples)
	maximum = 106.52 (50 samples)
Network latency average = 22.0687 (50 samples)
	minimum = 7 (50 samples)
	maximum = 106.38 (50 samples)
Flit latency average = 22.1602 (50 samples)
	minimum = 7 (50 samples)
	maximum = 108.1 (50 samples)
Fragmentation average = 0 (50 samples)
	minimum = 0 (50 samples)
	maximum = 0 (50 samples)
Injected packet rate average = 0.0500763 (50 samples)
	minimum = 0.0424967 (50 samples)
	maximum = 0.0584027 (50 samples)
Accepted packet rate average = 0.0500498 (50 samples)
	minimum = 0.0426373 (50 samples)
	maximum = 0.05848 (50 samples)
Injected flit rate average = 0.0500763 (50 samples)
	minimum = 0.0424967 (50 samples)
	maximum = 0.0584027 (50 samples)
Accepted flit rate average = 0.0500498 (50 samples)
	minimum = 0.0426373 (50 samples)
	maximum = 0.05848 (50 samples)
Injected packet size average = 1 (50 samples)
Accepted packet size average = 1 (50 samples)
Hops average = 3.49305 (50 samples)
Total run time 1.95266
