BEGIN Configuration File: /tmp/tmpty1jl7nu.cfg
topology = mesh;
k = 4;
n = 2;
routing_function = planar_adapt;
num_vcs = 4;
vc_buf_size = 4;
wait_for_tail_credit = 1;
vc_allocator = islip;
sw_allocator = islip;
alloc_iters = 1;
credit_delay = 2;
routing_delay = 1;
vc_alloc_delay = 1;
sw_alloc_delay = 1;
input_speedup = 2;
output_speedup = 1;
internal_speedup = 1.0;
traffic = transpose;
packet_size = 1;
sim_type = latency;
injection_rate = 0.01;
warmup_periods = 3;
sample_period = 500;
sim_count = 50;
seed = 2;
link_failures = 1;
fail_seed = 303;

END Configuration File: /tmp/tmpty1jl7nu.cfg
failure at node 9, channel 2 (1/1)
Class 0:
Packet latency average = 19.4355
	minimum = 7
	maximum = 37
Network latency average = 19.4355
	minimum = 7
	maximum = 37
Slowest packet = 1
Flit latency average = 19.4355
	minimum = 7
	maximum = 37
Slowest flit = 1
Fragmentation average = 0
	minimum = 0
	maximum = 0
Injected packet rate average = 0.008125
	minimum = 0 (at node 9)
	maximum = 0.014 (at node 5)
Accepted packet rate average = 0.00775
	minimum = 0 (at node 6)
	maximum = 0.014 (at node 5)
Injected flit rate average = 0.008125
	minimum = 0 (at node 9)
	maximum = 0.014 (at node 5)
Accepted flit rate average= 0.00775
	minimum = 0 (at node 6)
	maximum = 0.014 (at node 5)
Injected packet length average = 1
Accepted packet length average = 1
Total in-flight flits = 3 (0 measured)
latency change    = 1
throughput change = 1
Class 0:
Packet latency average = 18.8258
	minimum = 7
	maximum = 37
Network latency average = 18.8258
	minimum = 7
	maximum = 37
Slowest packet = 1
Flit latency average = 18.8258
	minimum = 7
	maximum = 37
Slowest flit = 1
Fragmentation average = 0
	minimum = 0
	maximum = 0
Injected packet rate average = 0.008625
	minimum = 0.003 (at node 2)
	maximum = 0.015 (at node 13)
Accepted packet rate average = 0.00825
	minimum = 0.003 (at node 6)
	maximum = 0.013 (at node 7)
Injected flit rate average = 0.008625
	minimum = 0.003 (at node 2)
	maximum = 0.015 (at node 13)
Accepted flit rate average= 0.00825
	minimum = 0.003 (at node 6)
	maximum = 0.013 (at node 7)
Injected packet length average = 1
Accepted packet length average = 1
Total in-flight flits = 6 (0 measured)
latency change    = 0.0323879
throughput change = 0.0606061
Class 0:
Packet latency average = 19
	minimum = 7
	maximum = 37
Network latency average = 19
	minimum = 7
	maximum = 37
Slowest packet = 131
Flit latency average = 19
	minimum = 7
	maximum = 37
Slowest flit = 131
Fragmentation average = 0
	minimum = 0
	maximum = 0
Injected packet rate average = 0.01
	minimum = 0.002 (at node 3)
	maximum = 0.022 (at node 13)
Accepted packet rate average = 0.010625
	minimum = 0.002 (at node 4)
	maximum = 0.026 (at node 7)
Injected flit rate average = 0.01
	minimum = 0.002 (at node 3)
	maximum = 0.022 (at node 13)
Accepted flit rate average= 0.010625
	minimum = 0.002 (at node 4)
	maximum = 0.026 (at node 7)
Injected packet length average = 1
Accepted packet length average = 1
Total in-flight flits = 1 (0 measured)
latency change    = 0.00917065
throughput change = 0.223529
Warmed up ...Time used is 1500 cycles
Class 0:
Packet latency average = 20.0115
	minimum = 7
	maximum = 38
Network latency average = 20.0115
	minimum = 7
	maximum = 38
Slowest packet = 256
Flit latency average = 19.9773
	minimum = 7
	maximum = 38
Slowest flit = 256
Fragmentation average = 0
	minimum = 0
	maximum = 0
Injected packet rate average = 0.01125
	minimum = 0.004 (at node 15)
	maximum = 0.022 (at node 10)
Accepted packet rate average = 0.011
	minimum = 0.004 (at node 8)
	maximum = 0.022 (at node 10)
Injected flit rate average = 0.01125
	minimum = 0.004 (at node 15)
	maximum = 0.022 (at node 10)
Accepted flit rate average= 0.011
	minimum = 0.004 (at node 8)
	maximum = 0.022 (at node 10)
Injected packet length average = 1
Accepted packet length average = 1
Total in-flight flits = 3 (3 measured)
latency change    = 0.0505457
throughput change = 0.0340909
Class 0:
Packet latency average = 20.6446
	minimum = 7
	maximum = 40
Network latency average = 20.6446
	minimum = 7
	maximum = 40
Slowest packet = 340
Flit latency average = 20.6228
	minimum = 7
	maximum = 40
Slowest flit = 340
Fragmentation average = 0
	minimum = 0
	maximum = 0
Injected packet rate average = 0.0105
	minimum = 0.006 (at node 2)
	maximum = 0.015 (at node 3)
Accepted packet rate average = 0.0104375
	minimum = 0.006 (at node 8)
	maximum = 0.015 (at node 10)
Injected flit rate average = 0.0105
	minimum = 0.006 (at node 2)
	maximum = 0.015 (at node 3)
Accepted flit rate average= 0.0104375
	minimum = 0.006 (at node 8)
	maximum = 0.015 (at node 10)
Injected packet length average = 1
Accepted packet length average = 1
Total in-flight flits = 2 (2 measured)
latency change    = 0.0306659
throughput change = 0.0538922
Class 0:
Packet latency average = 20.8034
	minimum = 7
	maximum = 40
Network latency average = 20.8034
	minimum = 7
	maximum = 40
Slowest packet = 340
Flit latency average = 20.7872
	minimum = 7
	maximum = 40
Slowest flit = 340
Fragmentation average = 0
	minimum = 0
	maximum = 0
Injected packet rate average = 0.00983333
	minimum = 0.00666667 (at node 1)
	maximum = 0.0153333 (at node 3)
Accepted packet rate average = 0.00979167
	minimum = 0.00666667 (at node 2)
	maximum = 0.0153333 (at node 12)
Injected flit rate average = 0.00983333
	minimum = 0.00666667 (at node 1)
	maximum = 0.0153333 (at node 3)
Accepted flit rate average= 0.00979167
	minimum = 0.00666667 (at node 2)
	maximum = 0.0153333 (at node 12)
Injected packet length average = 1
Accepted packet length average = 1
Total in-flight flits = 2 (2 measured)
latency change    = 0.00763531
throughput change = 0.0659574
Class 0:
Packet latency average = 20.646
	minimum = 7
	maximum = 40
Network latency average = 20.646
	minimum = 7
	maximum = 40
Slowest packet = 340
Flit latency average = 20.6347
	minimum = 7
	maximum = 40
Slowest flit = 340
Fragmentation average = 0
	minimum = 0
	maximum = 0
Injected packet rate average = 0.0101875
	minimum = 0.0065 (at node 8)
	maximum = 0.014 (at node 10)
Accepted packet rate average = 0.0100938
	minimum = 0.0065 (at node 2)
	maximum = 0.014 (at node 10)
Injected flit rate average = 0.0101875
	minimum = 0.0065 (at node 8)
	maximum = 0.014 (at node 10)
Accepted flit rate average= 0.0100938
	minimum = 0.0065 (at node 2)
	maximum = 0.014 (at node 10)
Injected packet length average = 1
Accepted packet length average = 1
Total in-flight flits = 4 (4 measured)
latency change    = 0.00762648
throughput change = 0.0299278
Class 0:
Packet latency average = 20.473
	minimum = 7
	maximum = 40
Network latency average = 20.473
	minimum = 7
	maximum = 40
Slowest packet = 340
Flit latency average = 20.4645
	minimum = 7
	maximum = 40
Slowest flit = 340
Fragmentation average = 0
	minimum = 0
	maximum = 0
Injected packet rate average = 0.010275
	minimum = 0.0076 (at node 1)
	maximum = 0.0136 (at node 12)
Accepted packet rate average = 0.010225
	minimum = 0.0076 (at node 2)
	maximum = 0.0132 (at node 3)
Injected flit rate average = 0.010275
	minimum = 0.0076 (at node 1)
	maximum = 0.0136 (at node 12)
Accepted flit rate average= 0.010225
	minimum = 0.0076 (at node 2)
	maximum = 0.0132 (at node 3)
Injected packet length average = 1
Accepted packet length average = 1
Total in-flight flits = 3 (3 measured)
latency change    = 0.0084464
throughput change = 0.0128362
Class 0:
Packet latency average = 20.3906
	minimum = 7
	maximum = 44
Network latency average = 20.3906
	minimum = 7
	maximum = 44
Slowest packet = 681
Flit latency average = 20.3837
	minimum = 7
	maximum = 44
Slowest flit = 681
Fragmentation average = 0
	minimum = 0
	maximum = 0
Injected packet rate average = 0.0103125
	minimum = 0.00766667 (at node 1)
	maximum = 0.0136667 (at node 10)
Accepted packet rate average = 0.0102083
	minimum = 0.00766667 (at node 8)
	maximum = 0.0133333 (at node 10)
Injected flit rate average = 0.0103125
	minimum = 0.00766667 (at node 1)
	maximum = 0.0136667 (at node 10)
Accepted flit rate average= 0.0102083
	minimum = 0.00766667 (at node 8)
	maximum = 0.0133333 (at node 10)
Injected packet length average = 1
Accepted packet length average = 1
Total in-flight flits = 6 (6 measured)
latency change    = 0.00404334
throughput change = 0.00163265
Draining all recorded packets ...
Draining remaining packets ...
Time taken is 4563 cycles
Class 0:
Packet latency average = 17.5
	minimum = 7
	maximum = 37
Network latency average = 17.5
	minimum = 7
	maximum = 37
Slowest packet = 731
Flit latency average = 17.5
	minimum = 7
	maximum = 37
Slowest flit = 731
Fragmentation average = 0
	minimum = 0
	maximum = 0
Injected packet rate average = 0.00875
	minimum = 0.004 (at node 7)
	maximum = 0.026 (at node 5)
Accepted packet rate average = 0.00825
	minimum = 0.004 (at node 2)
	maximum = 0.026 (at node 5)
Injected flit rate average = 0.00875
	minimum = 0.004 (at node 7)
	maximum = 0.026 (at node 5)
Accepted flit rate average= 0.00825
	minimum = 0.004 (at node 2)
	maximum = 0.026 (at node 5)
Injected packet length average = 1
Accepted packet length average = 1
Total in-flight flits = 4 (0 measured)
latency change    = 1
throughput change = 1
Class 0:
Packet latency average = 18.6115
	minimum = 7
	maximum = 37
Network latency average = 18.6115
	minimum = 7
	maximum = 37
Slowest packet = 731
Flit latency average = 18.6115
	minimum = 7
	maximum = 37
Slowest flit = 731
Fragmentation average = 0
	minimum = 0
	maximum = 0
Injected packet rate average = 0.01
	minimum = 0.005 (at node 2)
	maximum = 0.018 (at node 5)
Accepted packet rate average = 0.0098125
	minimum = 0.005 (at node 2)
	maximum = 0.018 (at node 5)
Injected flit rate average = 0.01
	minimum = 0.005 (at node 2)
	maximum = 0.018 (at node 5)
Accepted flit rate average= 0.0098125
	minimum = 0.005 (at node 2)
	maximum = 0.018 (at node 5)
Injected packet length average = 1
Accepted packet length average = 1
Total in-flight flits = 3 (0 measured)
latency change    = 0.0597194
throughput change = 0.159236
Class 0:
Packet latency average = 20.5526
	minimum = 7
	maximum = 44
Network latency average = 20.5526
	minimum = 7
	maximum = 44
Slowest packet = 907
Flit latency average = 20.5526
	minimum = 7
	maximum = 44
Slowest flit = 907
Fragmentation average = 0
	minimum = 0
	maximum = 0
Injected packet rate average = 0.009625
	minimum = 0.004 (at node 1)
	maximum = 0.018 (at node 9)
Accepted packet rate average = 0.0095
	minimum = 0.004 (at node 4)
	maximum = 0.016 (at node 7)
Injected flit rate average = 0.009625
	minimum = 0.004 (at node 1)
	maximum = 0.018 (at node 9)
Accepted flit rate average= 0.0095
	minimum = 0.004 (at node 4)
	maximum = 0.016 (at node 7)
Injected packet length average = 1
Accepted packet length average = 1
Total in-flight flits = 4 (0 measured)
latency change    = 0.0944486
throughput change = 0.0328947
Warmed up ...Time used is 1500 cycles
Class 0:
Packet latency average = 21.0122
	minimum = 7
	maximum = 44
Network latency average = 21.0122
	minimum = 7
	maximum = 44
Slowest packet = 964
Flit latency average = 21.0581
	minimum = 7
	maximum = 44
Slowest flit = 964
Fragmentation average = 0
	minimum = 0
	maximum = 0
Injected packet rate average = 0.010625
	minimum = 0.004 (at node 6)
	maximum = 0.016 (at node 5)
Accepted packet rate average = 0.01075
	minimum = 0.004 (at node 9)
	maximum = 0.018 (at node 13)
Injected flit rate average = 0.010625
	minimum = 0.004 (at node 6)
	maximum = 0.016 (at node 5)
Accepted flit rate average= 0.01075
	minimum = 0.004 (at node 9)
	maximum = 0.018 (at node 13)
Injected packet length average = 1
Accepted packet length average = 1
Total in-flight flits = 3 (3 measured)
latency change    = 0.0218713
throughput change = 0.116279
Class 0:
Packet latency average = 20.7759
	minimum = 7
	maximum = 44
Network latency average = 20.7759
	minimum = 7
	maximum = 44
Slowest packet = 964
Flit latency average = 20.8034
	minimum = 7
	maximum = 44
Slowest flit = 964
Fragmentation average = 0
	minimum = 0
	maximum = 0
Injected packet rate average = 0.0109375
	minimum = 0.007 (at node 6)
	maximum = 0.015 (at node 5)
Accepted packet rate average = 0.011125
	minimum = 0.007 (at node 9)
	maximum = 0.015 (at node 5)
Injected flit rate average = 0.0109375
	minimum = 0.007 (at node 6)
	maximum = 0.015 (at node 5)
Accepted flit rate average= 0.011125
	minimum = 0.007 (at node 9)
	maximum = 0.015 (at node 5)
Injected packet length average = 1
Accepted packet length average = 1
Total in-flight flits = 1 (1 measured)
latency change    = 0.0113754
throughput change = 0.0337079
Class 0:
Packet latency average = 20.2688
	minimum = 7
	maximum = 44
Network latency average = 20.2688
	minimum = 7
	maximum = 44
Slowest packet = 964
Flit latency average = 20.2957
	minimum = 7
	maximum = 44
Slowest flit = 964
Fragmentation average = 0
	minimum = 0
	maximum = 0
Injected packet rate average = 0.01075
	minimum = 0.00866667 (at node 2)
	maximum = 0.0153333 (at node 5)
Accepted packet rate average = 0.0107083
	minimum = 0.008 (at node 2)
	maximum = 0.0153333 (at node 5)
Injected flit rate average = 0.01075
	minimum = 0.00866667 (at node 2)
	maximum = 0.0153333 (at node 5)
Accepted flit rate average= 0.0107083
	minimum = 0.008 (at node 2)
	maximum = 0.0153333 (at node 5)
Injected packet length average = 1
Accepted packet length average = 1
Total in-flight flits = 5 (5 measured)
latency change    = 0.0250182
throughput change = 0.0389105
Class 0:
Packet latency average = 20.4648
	minimum = 7
	maximum = 44
Network latency average = 20.4648
	minimum = 7
	maximum = 44
Slowest packet = 964
Flit latency average = 20.4834
	minimum = 7
	maximum = 44
Slowest flit = 964
Fragmentation average = 0
	minimum = 0
	maximum = 0
Injected packet rate average = 0.0104375
	minimum = 0.008 (at node 6)
	maximum = 0.015 (at node 3)
Accepted packet rate average = 0.0103438
	minimum = 0.008 (at node 9)
	maximum = 0.014 (at node 12)
Injected flit rate average = 0.0104375
	minimum = 0.008 (at node 6)
	maximum = 0.015 (at node 3)
Accepted flit rate average= 0.0103438
	minimum = 0.008 (at node 9)
	maximum = 0.014 (at node 12)
Injected packet length average = 1
Accepted packet length average = 1
Total in-flight flits = 7 (7 measured)
latency change    = 0.0095802
throughput change = 0.0352467
Draining all recorded packets ...
Draining remaining packets ...
Time taken is 3525 cycles
Class 0:
Packet latency average = 21.48
	minimum = 7
	maximum = 43
Network latency average = 21.48
	minimum = 7
	maximum = 43
Slowest packet = 1334
Flit latency average = 21.48
	minimum = 7
	maximum = 43
Slowest flit = 1334
Fragmentation average = 0
	minimum = 0
	maximum = 0
Injected packet rate average = 0.00975
	minimum = 0.002 (at node 11)
	maximum = 0.014 (at node 1)
Accepted packet rate average = 0.009375
	minimum = 0.002 (at node 14)
	maximum = 0.014 (at node 4)
Injected flit rate average = 0.00975
	minimum = 0.002 (at node 11)
	maximum = 0.014 (at node 1)
Accepted flit rate average= 0.009375
	minimum = 0.002 (at node 14)
	maximum = 0.014 (at node 4)
Injected packet length average = 1
Accepted packet length average = 1
Total in-flight flits = 3 (0 measured)
latency change    = 1
throughput change = 1
Class 0:
Packet latency average = 20.9818
	minimum = 7
	maximum = 43
Network latency average = 20.9818
	minimum = 7
	maximum = 43
Slowest packet = 1334
Flit latency average = 20.9818
	minimum = 7
	maximum = 43
Slowest flit = 1334
Fragmentation average = 0
	minimum = 0
	maximum = 0
Injected packet rate average = 0.0105625
	minimum = 0.006 (at node 5)
	maximum = 0.015 (at node 15)
Accepted packet rate average = 0.0103125
	minimum = 0.005 (at node 5)
	maximum = 0.015 (at node 15)
Injected flit rate average = 0.0105625
	minimum = 0.006 (at node 5)
	maximum = 0.015 (at node 15)
Accepted flit rate average= 0.0103125
	minimum = 0.005 (at node 5)
	maximum = 0.015 (at node 15)
Injected packet length average = 1
Accepted packet length average = 1
Total in-flight flits = 4 (0 measured)
latency change    = 0.0237435
throughput change = 0.0909091
Class 0:
Packet latency average = 17.4516
	minimum = 7
	maximum = 37
Network latency average = 17.4516
	minimum = 7
	maximum = 37
Slowest packet = 1449
Flit latency average = 17.4516
	minimum = 7
	maximum = 37
Slowest flit = 1449
Fragmentation average = 0
	minimum = 0
	maximum = 0
Injected packet rate average = 0.0115
	minimum = 0 (at node 7)
	maximum = 0.022 (at node 0)
Accepted packet rate average = 0.011625
	minimum = 0 (at node 7)
	maximum = 0.022 (at node 0)
Injected flit rate average = 0.0115
	minimum = 0 (at node 7)
	maximum = 0.022 (at node 0)
Accepted flit rate average= 0.011625
	minimum = 0 (at node 7)
	maximum = 0.022 (at node 0)
Injected packet length average = 1
Accepted packet length average = 1
Total in-flight flits = 3 (0 measured)
latency change    = 0.202285
throughput change = 0.112903
Warmed up ...Time used is 1500 cycles
Class 0:
Packet latency average = 18.7935
	minimum = 7
	maximum = 38
Network latency average = 18.7935
	minimum = 7
	maximum = 38
Slowest packet = 1582
Flit latency average = 19.1579
	minimum = 7
	maximum = 38
Slowest flit = 1582
Fragmentation average = 0
	minimum = 0
	maximum = 0
Injected packet rate average = 0.01175
	minimum = 0.004 (at node 1)
	maximum = 0.022 (at node 0)
Accepted packet rate average = 0.011875
	minimum = 0.004 (at node 4)
	maximum = 0.022 (at node 0)
Injected flit rate average = 0.01175
	minimum = 0.004 (at node 1)
	maximum = 0.022 (at node 0)
Accepted flit rate average= 0.011875
	minimum = 0.004 (at node 4)
	maximum = 0.022 (at node 0)
Injected packet length average = 1
Accepted packet length average = 1
Total in-flight flits = 2 (2 measured)
latency change    = 0.0714006
throughput change = 0.0210526
Class 0:
Packet latency average = 19.5723
	minimum = 7
	maximum = 38
Network latency average = 19.5723
	minimum = 7
	maximum = 38
Slowest packet = 1582
Flit latency average = 19.7557
	minimum = 7
	maximum = 38
Slowest flit = 1582
Fragmentation average = 0
	minimum = 0
	maximum = 0
Injected packet rate average = 0.011125
	minimum = 0.005 (at node 3)
	maximum = 0.019 (at node 14)
Accepted packet rate average = 0.011
	minimum = 0.005 (at node 4)
	maximum = 0.019 (at node 11)
Injected flit rate average = 0.011125
	minimum = 0.005 (at node 3)
	maximum = 0.019 (at node 14)
Accepted flit rate average= 0.011
	minimum = 0.005 (at node 4)
	maximum = 0.019 (at node 11)
Injected packet length average = 1
Accepted packet length average = 1
Total in-flight flits = 5 (5 measured)
latency change    = 0.0397898
throughput change = 0.0795455
Class 0:
Packet latency average = 20.2022
	minimum = 7
	maximum = 38
Network latency average = 20.2022
	minimum = 7
	maximum = 38
Slowest packet = 1582
Flit latency average = 20.3148
	minimum = 7
	maximum = 38
Slowest flit = 1582
Fragmentation average = 0
	minimum = 0
	maximum = 0
Injected packet rate average = 0.0113333
	minimum = 0.00466667 (at node 1)
	maximum = 0.018 (at node 6)
Accepted packet rate average = 0.01125
	minimum = 0.00466667 (at node 4)
	maximum = 0.018 (at node 9)
Injected flit rate average = 0.0113333
	minimum = 0.00466667 (at node 1)
	maximum = 0.018 (at node 6)
Accepted flit rate average= 0.01125
	minimum = 0.00466667 (at node 4)
	maximum = 0.018 (at node 9)
Injected packet length average = 1
Accepted packet length average = 1
Total in-flight flits = 5 (5 measured)
latency change    = 0.0311843
throughput change = 0.0222222
Class 0:
Packet latency average = 19.9666
	minimum = 7
	maximum = 38
Network latency average = 19.9666
	minimum = 7
	maximum = 38
Slowest packet = 1582
Flit latency average = 20.0525
	minimum = 7
	maximum = 38
Slowest flit = 1582
Fragmentation average = 0
	minimum = 0
	maximum = 0
Injected packet rate average = 0.0113125
	minimum = 0.0065 (at node 9)
	maximum = 0.0155 (at node 6)
Accepted packet rate average = 0.0113125
	minimum = 0.0065 (at node 6)
	maximum = 0.0155 (at node 9)
Injected flit rate average = 0.0113125
	minimum = 0.0065 (at node 9)
	maximum = 0.0155 (at node 6)
Accepted flit rate average= 0.0113125
	minimum = 0.0065 (at node 6)
	maximum = 0.0155 (at node 9)
Injected packet length average = 1
Accepted packet length average = 1
Total in-flight flits = 3 (3 measured)
latency change    = 0.0118034
throughput change = 0.00552486
Class 0:
Packet latency average = 20.0362
	minimum = 7
	maximum = 38
Network latency average = 20.0362
	minimum = 7
	maximum = 38
Slowest packet = 1582
Flit latency average = 20.1056
	minimum = 7
	maximum = 38
Slowest flit = 1582
Fragmentation average = 0
	minimum = 0
	maximum = 0
Injected packet rate average = 0.011075
	minimum = 0.0056 (at node 9)
	maximum = 0.0144 (at node 6)
Accepted packet rate average = 0.011125
	minimum = 0.0056 (at node 6)
	maximum = 0.0144 (at node 9)
Injected flit rate average = 0.011075
	minimum = 0.0056 (at node 9)
	maximum = 0.0144 (at node 6)
Accepted flit rate average= 0.011125
	minimum = 0.0056 (at node 6)
	maximum = 0.0144 (at node 9)
Injected packet length average = 1
Accepted packet length average = 1
Total in-flight flits = 1 (1 measured)
latency change    = 0.00347497
throughput change = 0.0168539
Draining all recorded packets ...
Draining remaining packets ...
Time taken is 4013 cycles
Class 0:
Packet latency average = 19.942
	minimum = 7
	maximum = 37
Network latency average = 19.942
	minimum = 7
	maximum = 37
Slowest packet = 2000
Flit latency average = 19.942
	minimum = 7
	maximum = 37
Slowest flit = 2000
Fragmentation average = 0
	minimum = 0
	maximum = 0
Injected packet rate average = 0.009125
	minimum = 0.002 (at node 10)
	maximum = 0.014 (at node 6)
Accepted packet rate average = 0.008625
	minimum = 0.002 (at node 10)
	maximum = 0.012 (at node 0)
Injected flit rate average = 0.009125
	minimum = 0.002 (at node 10)
	maximum = 0.014 (at node 6)
Accepted flit rate average= 0.008625
	minimum = 0.002 (at node 10)
	maximum = 0.012 (at node 0)
Injected packet length average = 1
Accepted packet length average = 1
Total in-flight flits = 4 (0 measured)
latency change    = 1
throughput change = 1
Class 0:
Packet latency average = 20.1844
	minimum = 7
	maximum = 45
Network latency average = 20.1844
	minimum = 7
	maximum = 45
Slowest packet = 2072
Flit latency average = 20.1844
	minimum = 7
	maximum = 45
Slowest flit = 2072
Fragmentation average = 0
	minimum = 0
	maximum = 0
Injected packet rate average = 0.009
	minimum = 0.003 (at node 10)
	maximum = 0.013 (at node 0)
Accepted packet rate average = 0.0088125
	minimum = 0.003 (at node 10)
	maximum = 0.013 (at node 0)
Injected flit rate average = 0.009
	minimum = 0.003 (at node 10)
	maximum = 0.013 (at node 0)
Accepted flit rate average= 0.0088125
	minimum = 0.003 (at node 10)
	maximum = 0.013 (at node 0)
Injected packet length average = 1
Accepted packet length average = 1
Total in-flight flits = 3 (0 measured)
latency change    = 0.0120077
throughput change = 0.0212766
Class 0:
Packet latency average = 20.2308
	minimum = 7
	maximum = 37
Network latency average = 20.2308
	minimum = 7
	maximum = 37
Slowest packet = 2133
Flit latency average = 20.2308
	minimum = 7
	maximum = 37
Slowest flit = 2133
Fragmentation average = 0
	minimum = 0
	maximum = 0
Injected packet rate average = 0.0115
	minimum = 0.004 (at node 6)
	maximum = 0.024 (at node 14)
Accepted packet rate average = 0.011375
	minimum = 0.004 (at node 9)
	maximum = 0.02 (at node 6)
Injected flit rate average = 0.0115
	minimum = 0.004 (at node 6)
	maximum = 0.024 (at node 14)
Accepted flit rate average= 0.011375
	minimum = 0.004 (at node 9)
	maximum = 0.02 (at node 6)
Injected packet length average = 1
Accepted packet length average = 1
Total in-flight flits = 4 (0 measured)
latency change    = 0.00229216
throughput change = 0.225275
Warmed up ...Time used is 1500 cycles
Class 0:
Packet latency average = 21.12
	minimum = 7
	maximum = 38
Network latency average = 21.12
	minimum = 7
	maximum = 38
Slowest packet = 2285
Flit latency average = 21.0759
	minimum = 7
	maximum = 38
Slowest flit = 2285
Fragmentation average = 0
	minimum = 0
	maximum = 0
Injected packet rate average = 0.009625
	minimum = 0.004 (at node 8)
	maximum = 0.016 (at node 4)
Accepted packet rate average = 0.009875
	minimum = 0.004 (at node 2)
	maximum = 0.016 (at node 7)
Injected flit rate average = 0.009625
	minimum = 0.004 (at node 8)
	maximum = 0.016 (at node 4)
Accepted flit rate average= 0.009875
	minimum = 0.004 (at node 2)
	maximum = 0.016 (at node 7)
Injected packet length average = 1
Accepted packet length average = 1
Total in-flight flits = 2 (2 measured)
latency change    = 0.0421037
throughput change = 0.151899
Class 0:
Packet latency average = 19.5099
	minimum = 7
	maximum = 38
Network latency average = 19.5099
	minimum = 7
	maximum = 38
Slowest packet = 2285
Flit latency average = 19.529
	minimum = 7
	maximum = 38
Slowest flit = 2285
Fragmentation average = 0
	minimum = 0
	maximum = 0
Injected packet rate average = 0.0096875
	minimum = 0.005 (at node 3)
	maximum = 0.015 (at node 5)
Accepted packet rate average = 0.0096875
	minimum = 0.005 (at node 2)
	maximum = 0.015 (at node 5)
Injected flit rate average = 0.0096875
	minimum = 0.005 (at node 3)
	maximum = 0.015 (at node 5)
Accepted flit rate average= 0.0096875
	minimum = 0.005 (at node 2)
	maximum = 0.015 (at node 5)
Injected packet length average = 1
Accepted packet length average = 1
Total in-flight flits = 4 (4 measured)
latency change    = 0.0825255
throughput change = 0.0193548
Class 0:
Packet latency average = 20.0526
	minimum = 7
	maximum = 44
Network latency average = 20.0526
	minimum = 7
	maximum = 44
Slowest packet = 2431
Flit latency average = 20.056
	minimum = 7
	maximum = 44
Slowest flit = 2431
Fragmentation average = 0
	minimum = 0
	maximum = 0
Injected packet rate average = 0.00975
	minimum = 0.006 (at node 3)
	maximum = 0.0126667 (at node 2)
Accepted packet rate average = 0.00966667
	minimum = 0.006 (at node 2)
	maximum = 0.0126667 (at node 5)
Injected flit rate average = 0.00975
	minimum = 0.006 (at node 3)
	maximum = 0.0126667 (at node 2)
Accepted flit rate average= 0.00966667
	minimum = 0.006 (at node 2)
	maximum = 0.0126667 (at node 5)
Injected packet length average = 1
Accepted packet length average = 1
Total in-flight flits = 6 (6 measured)
latency change    = 0.0270637
throughput change = 0.00215517
Class 0:
Packet latency average = 19.8938
	minimum = 7
	maximum = 44
Network latency average = 19.8938
	minimum = 7
	maximum = 44
Slowest packet = 2431
Flit latency average = 19.8981
	minimum = 7
	maximum = 44
Slowest flit = 2431
Fragmentation average = 0
	minimum = 0
	maximum = 0
Injected packet rate average = 0.010125
	minimum = 0.0065 (at node 3)
	maximum = 0.012 (at node 1)
Accepted packet rate average = 0.010125
	minimum = 0.0065 (at node 12)
	maximum = 0.012 (at node 1)
Injected flit rate average = 0.010125
	minimum = 0.0065 (at node 3)
	maximum = 0.012 (at node 1)
Accepted flit rate average= 0.010125
	minimum = 0.0065 (at node 12)
	maximum = 0.012 (at node 1)
Injected packet length average = 1
Accepted packet length average = 1
Total in-flight flits = 4 (4 measured)
latency change    = 0.00798651
throughput change = 0.0452675
Class 0:
Packet latency average = 19.6902
	minimum = 7
	maximum = 44
Network latency average = 19.6902
	minimum = 7
	maximum = 44
Slowest packet = 2431
Flit latency average = 19.6957
	minimum = 7
	maximum = 44
Slowest flit = 2431
Fragmentation average = 0
	minimum = 0
	maximum = 0
Injected packet rate average = 0.01035
	minimum = 0.008 (at node 14)
	maximum = 0.0128 (at node 1)
Accepted packet rate average = 0.01035
	minimum = 0.008 (at node 12)
	maximum = 0.0124 (at node 4)
Injected flit rate average = 0.01035
	minimum = 0.008 (at node 14)
	maximum = 0.0128 (at node 1)
Accepted flit rate average= 0.01035
	minimum = 0.008 (at node 12)
	maximum = 0.0124 (at node 4)
Injected packet length average = 1
Accepted packet length average = 1
Total in-flight flits = 4 (4 measured)
latency change    = 0.0103354
throughput change = 0.0217391
Draining all recorded packets ...
Draining remaining packets ...
Time taken is 4017 cycles
Class 0:
Packet latency average = 22
	minimum = 7
	maximum = 37
Network latency average = 22
	minimum = 7
	maximum = 37
Slowest packet = 2649
Flit latency average = 22
	minimum = 7
	maximum = 37
Slowest flit = 2649
Fragmentation average = 0
	minimum = 0
	maximum = 0
Injected packet rate average = 0.009375
	minimum = 0.004 (at node 7)
	maximum = 0.016 (at node 3)
Accepted packet rate average = 0.00925
	minimum = 0.004 (at node 10)
	maximum = 0.016 (at node 3)
Injected flit rate average = 0.009375
	minimum = 0.004 (at node 7)
	maximum = 0.016 (at node 3)
Accepted flit rate average= 0.00925
	minimum = 0.004 (at node 10)
	maximum = 0.016 (at node 3)
Injected packet length average = 1
Accepted packet length average = 1
Total in-flight flits = 1 (0 measured)
latency change    = 1
throughput change = 1
Class 0:
Packet latency average = 20.6357
	minimum = 7
	maximum = 46
Network latency average = 20.6357
	minimum = 7
	maximum = 46
Slowest packet = 2764
Flit latency average = 20.6357
	minimum = 7
	maximum = 46
Slowest flit = 2764
Fragmentation average = 0
	minimum = 0
	maximum = 0
Injected packet rate average = 0.0089375
	minimum = 0.002 (at node 7)
	maximum = 0.015 (at node 8)
Accepted packet rate average = 0.00875
	minimum = 0.002 (at node 13)
	maximum = 0.015 (at node 2)
Injected flit rate average = 0.0089375
	minimum = 0.002 (at node 7)
	maximum = 0.015 (at node 8)
Accepted flit rate average= 0.00875
	minimum = 0.002 (at node 13)
	maximum = 0.015 (at node 2)
Injected packet length average = 1
Accepted packet length average = 1
Total in-flight flits = 3 (0 measured)
latency change    = 0.0661128
throughput change = 0.0571429
Class 0:
Packet latency average = 20.0137
	minimum = 7
	maximum = 37
Network latency average = 20.0137
	minimum = 7
	maximum = 37
Slowest packet = 2788
Flit latency average = 20.0137
	minimum = 7
	maximum = 37
Slowest flit = 2788
Fragmentation average = 0
	minimum = 0
	maximum = 0
Injected packet rate average = 0.00925
	minimum = 0.002 (at node 8)
	maximum = 0.02 (at node 6)
Accepted packet rate average = 0.009125
	minimum = 0.002 (at node 2)
	maximum = 0.018 (at node 9)
Injected flit rate average = 0.00925
	minimum = 0.002 (at node 8)
	maximum = 0.02 (at node 6)
Accepted flit rate average= 0.009125
	minimum = 0.002 (at node 2)
	maximum = 0.018 (at node 9)
Injected packet length average = 1
Accepted packet length average = 1
Total in-flight flits = 4 (0 measured)
latency change    = 0.0310795
throughput change = 0.0410959
Warmed up ...Time used is 1500 cycles
Class 0:
Packet latency average = 18.5342
	minimum = 7
	maximum = 39
Network latency average = 18.5342
	minimum = 7
	maximum = 39
Slowest packet = 2873
Flit latency average = 18.5844
	minimum = 7
	maximum = 39
Slowest flit = 2873
Fragmentation average = 0
	minimum = 0
	maximum = 0
Injected packet rate average = 0.00975
	minimum = 0.004 (at node 3)
	maximum = 0.016 (at node 0)
Accepted packet rate average = 0.009625
	minimum = 0.004 (at node 12)
	maximum = 0.016 (at node 0)
Injected flit rate average = 0.00975
	minimum = 0.004 (at node 3)
	maximum = 0.016 (at node 0)
Accepted flit rate average= 0.009625
	minimum = 0.004 (at node 12)
	maximum = 0.016 (at node 0)
Injected packet length average = 1
Accepted packet length average = 1
Total in-flight flits = 5 (5 measured)
latency change    = 0.0798226
throughput change = 0.0519481
Class 0:
Packet latency average = 19.6268
	minimum = 7
	maximum = 39
Network latency average = 19.6268
	minimum = 7
	maximum = 39
Slowest packet = 2873
Flit latency average = 19.6233
	minimum = 7
	maximum = 39
Slowest flit = 2873
Fragmentation average = 0
	minimum = 0
	maximum = 0
Injected packet rate average = 0.008875
	minimum = 0.005 (at node 10)
	maximum = 0.015 (at node 0)
Accepted packet rate average = 0.009125
	minimum = 0.006 (at node 10)
	maximum = 0.015 (at node 0)
Injected flit rate average = 0.008875
	minimum = 0.005 (at node 10)
	maximum = 0.015 (at node 0)
Accepted flit rate average= 0.009125
	minimum = 0.006 (at node 10)
	maximum = 0.015 (at node 0)
Injected packet length average = 1
Accepted packet length average = 1
Total in-flight flits = 0 (0 measured)
latency change    = 0.0556645
throughput change = 0.0547945
Class 0:
Packet latency average = 20.4634
	minimum = 7
	maximum = 43
Network latency average = 20.4634
	minimum = 7
	maximum = 43
Slowest packet = 3006
Flit latency average = 20.445
	minimum = 7
	maximum = 43
Slowest flit = 3006
Fragmentation average = 0
	minimum = 0
	maximum = 0
Injected packet rate average = 0.00866667
	minimum = 0.00466667 (at node 10)
	maximum = 0.0126667 (at node 2)
Accepted packet rate average = 0.00870833
	minimum = 0.00533333 (at node 10)
	maximum = 0.012 (at node 8)
Injected flit rate average = 0.00866667
	minimum = 0.00466667 (at node 10)
	maximum = 0.0126667 (at node 2)
Accepted flit rate average= 0.00870833
	minimum = 0.00533333 (at node 10)
	maximum = 0.012 (at node 8)
Injected packet length average = 1
Accepted packet length average = 1
Total in-flight flits = 3 (3 measured)
latency change    = 0.0408854
throughput change = 0.0478469
Class 0:
Packet latency average = 21.5366
	minimum = 7
	maximum = 43
Network latency average = 21.5366
	minimum = 7
	maximum = 43
Slowest packet = 3006
Flit latency average = 21.5086
	minimum = 7
	maximum = 43
Slowest flit = 3006
Fragmentation average = 0
	minimum = 0
	maximum = 0
Injected packet rate average = 0.00909375
	minimum = 0.0045 (at node 10)
	maximum = 0.014 (at node 12)
Accepted packet rate average = 0.00909375
	minimum = 0.005 (at node 10)
	maximum = 0.0135 (at node 3)
Injected flit rate average = 0.00909375
	minimum = 0.0045 (at node 10)
	maximum = 0.014 (at node 12)
Accepted flit rate average= 0.00909375
	minimum = 0.005 (at node 10)
	maximum = 0.0135 (at node 3)
Injected packet length average = 1
Accepted packet length average = 1
Total in-flight flits = 4 (4 measured)
latency change    = 0.0498301
throughput change = 0.0423826
Class 0:
Packet latency average = 21.2658
	minimum = 7
	maximum = 43
Network latency average = 21.2658
	minimum = 7
	maximum = 43
Slowest packet = 3006
Flit latency average = 21.2466
	minimum = 7
	maximum = 43
Slowest flit = 3006
Fragmentation average = 0
	minimum = 0
	maximum = 0
Injected packet rate average = 0.009225
	minimum = 0.0064 (at node 10)
	maximum = 0.014 (at node 12)
Accepted packet rate average = 0.009225
	minimum = 0.0068 (at node 10)
	maximum = 0.014 (at node 3)
Injected flit rate average = 0.009225
	minimum = 0.0064 (at node 10)
	maximum = 0.014 (at node 12)
Accepted flit rate average= 0.009225
	minimum = 0.0068 (at node 10)
	maximum = 0.014 (at node 3)
Injected packet length average = 1
Accepted packet length average = 1
Total in-flight flits = 4 (4 measured)
latency change    = 0.0127356
throughput change = 0.0142276
Draining all recorded packets ...
Draining remaining packets ...
Time taken is 4039 cycles
Class 0:
Packet latency average = 19.2105
	minimum = 7
	maximum = 41
Network latency average = 19.2105
	minimum = 7
	maximum = 41
Slowest packet = 3289
Flit latency average = 19.2105
	minimum = 7
	maximum = 41
Slowest flit = 3289
Fragmentation average = 0
	minimum = 0
	maximum = 0
Injected packet rate average = 0.01225
	minimum = 0.006 (at node 9)
	maximum = 0.024 (at node 15)
Accepted packet rate average = 0.011875
	minimum = 0.006 (at node 6)
	maximum = 0.024 (at node 15)
Injected flit rate average = 0.01225
	minimum = 0.006 (at node 9)
	maximum = 0.024 (at node 15)
Accepted flit rate average= 0.011875
	minimum = 0.006 (at node 6)
	maximum = 0.024 (at node 15)
Injected packet length average = 1
Accepted packet length average = 1
Total in-flight flits = 3 (0 measured)
latency change    = 1
throughput change = 1
Class 0:
Packet latency average = 19.7966
	minimum = 7
	maximum = 41
Network latency average = 19.7966
	minimum = 7
	maximum = 41
Slowest packet = 3289
Flit latency average = 19.7966
	minimum = 7
	maximum = 41
Slowest flit = 3289
Fragmentation average = 0
	minimum = 0
	maximum = 0
Injected packet rate average = 0.011375
	minimum = 0.007 (at node 9)
	maximum = 0.017 (at node 3)
Accepted packet rate average = 0.0110625
	minimum = 0.007 (at node 6)
	maximum = 0.015 (at node 5)
Injected flit rate average = 0.011375
	minimum = 0.007 (at node 9)
	maximum = 0.017 (at node 3)
Accepted flit rate average= 0.0110625
	minimum = 0.007 (at node 6)
	maximum = 0.015 (at node 5)
Injected packet length average = 1
Accepted packet length average = 1
Total in-flight flits = 5 (0 measured)
latency change    = 0.0296053
throughput change = 0.0734463
Class 0:
Packet latency average = 20.9524
	minimum = 7
	maximum = 45
Network latency average = 20.9524
	minimum = 7
	maximum = 45
Slowest packet = 3442
Flit latency average = 20.9524
	minimum = 7
	maximum = 45
Slowest flit = 3442
Fragmentation average = 0
	minimum = 0
	maximum = 0
Injected packet rate average = 0.01025
	minimum = 0.004 (at node 9)
	maximum = 0.022 (at node 7)
Accepted packet rate average = 0.0105
	minimum = 0.004 (at node 6)
	maximum = 0.02 (at node 13)
Injected flit rate average = 0.01025
	minimum = 0.004 (at node 9)
	maximum = 0.022 (at node 7)
Accepted flit rate average= 0.0105
	minimum = 0.004 (at node 6)
	maximum = 0.02 (at node 13)
Injected packet length average = 1
Accepted packet length average = 1
Total in-flight flits = 3 (0 measured)
latency change    = 0.0551618
throughput change = 0.0535714
Warmed up ...Time used is 1500 cycles
Class 0:
Packet latency average = 19.5488
	minimum = 7
	maximum = 41
Network latency average = 19.5488
	minimum = 7
	maximum = 41
Slowest packet = 3499
Flit latency average = 19.9294
	minimum = 7
	maximum = 41
Slowest flit = 3499
Fragmentation average = 0
	minimum = 0
	maximum = 0
Injected packet rate average = 0.010375
	minimum = 0.004 (at node 12)
	maximum = 0.02 (at node 1)
Accepted packet rate average = 0.010625
	minimum = 0.004 (at node 3)
	maximum = 0.02 (at node 4)
Injected flit rate average = 0.010375
	minimum = 0.004 (at node 12)
	maximum = 0.02 (at node 1)
Accepted flit rate average= 0.010625
	minimum = 0.004 (at node 3)
	maximum = 0.02 (at node 4)
Injected packet length average = 1
Accepted packet length average = 1
Total in-flight flits = 1 (1 measured)
latency change    = 0.0717999
throughput change = 0.0117647
Class 0:
Packet latency average = 20.2625
	minimum = 7
	maximum = 42
Network latency average = 20.2625
	minimum = 7
	maximum = 42
Slowest packet = 3612
Flit latency average = 20.4479
	minimum = 7
	maximum = 42
Slowest flit = 3612
Fragmentation average = 0
	minimum = 0
	maximum = 0
Injected packet rate average = 0.0100625
	minimum = 0.004 (at node 10)
	maximum = 0.016 (at node 1)
Accepted packet rate average = 0.0101875
	minimum = 0.004 (at node 10)
	maximum = 0.016 (at node 4)
Injected flit rate average = 0.0100625
	minimum = 0.004 (at node 10)
	maximum = 0.016 (at node 1)
Accepted flit rate average= 0.0101875
	minimum = 0.004 (at node 10)
	maximum = 0.016 (at node 4)
Injected packet length average = 1
Accepted packet length average = 1
Total in-flight flits = 1 (1 measured)
latency change    = 0.0352237
throughput change = 0.0429448
Class 0:
Packet latency average = 20.1911
	minimum = 7
	maximum = 42
Network latency average = 20.1911
	minimum = 7
	maximum = 42
Slowest packet = 3612
Flit latency average = 20.3133
	minimum = 7
	maximum = 42
Slowest flit = 3612
Fragmentation average = 0
	minimum = 0
	maximum = 0
Injected packet rate average = 0.0104167
	minimum = 0.00666667 (at node 2)
	maximum = 0.016 (at node 13)
Accepted packet rate average = 0.010375
	minimum = 0.00666667 (at node 10)
	maximum = 0.0153333 (at node 7)
Injected flit rate average = 0.0104167
	minimum = 0.00666667 (at node 2)
	maximum = 0.016 (at node 13)
Accepted flit rate average= 0.010375
	minimum = 0.00666667 (at node 10)
	maximum = 0.0153333 (at node 7)
Injected packet length average = 1
Accepted packet length average = 1
Total in-flight flits = 4 (4 measured)
latency change    = 0.00353835
throughput change = 0.0180723
Class 0:
Packet latency average = 20.5234
	minimum = 7
	maximum = 45
Network latency average = 20.5234
	minimum = 7
	maximum = 45
Slowest packet = 3789
Flit latency average = 20.6142
	minimum = 7
	maximum = 45
Slowest flit = 3789
Fragmentation average = 0
	minimum = 0
	maximum = 0
Injected packet rate average = 0.0101563
	minimum = 0.0065 (at node 2)
	maximum = 0.014 (at node 13)
Accepted packet rate average = 0.010125
	minimum = 0.0075 (at node 8)
	maximum = 0.014 (at node 7)
Injected flit rate average = 0.0101563
	minimum = 0.0065 (at node 2)
	maximum = 0.014 (at node 13)
Accepted flit rate average= 0.010125
	minimum = 0.0075 (at node 8)
	maximum = 0.014 (at node 7)
Injected packet length average = 1
Accepted packet length average = 1
Total in-flight flits = 4 (4 measured)
latency change    = 0.0161917
throughput change = 0.0246914
Draining all recorded packets ...
Draining remaining packets ...
Time taken is 3553 cycles
Class 0:
Packet latency average = 20.5893
	minimum = 7
	maximum = 37
Network latency average = 20.5893
	minimum = 7
	maximum = 37
Slowest packet = 3837
Flit latency average = 20.5893
	minimum = 7
	maximum = 37
Slowest flit = 3837
Fragmentation average = 0
	minimum = 0
	maximum = 0
Injected packet rate average = 0.007375
	minimum = 0 (at node 0)
	maximum = 0.016 (at node 4)
Accepted packet rate average = 0.007
	minimum = 0 (at node 0)
	maximum = 0.016 (at node 1)
Injected flit rate average = 0.007375
	minimum = 0 (at node 0)
	maximum = 0.016 (at node 4)
Accepted flit rate average= 0.007
	minimum = 0 (at node 0)
	maximum = 0.016 (at node 1)
Injected packet length average = 1
Accepted packet length average = 1
Total in-flight flits = 3 (0 measured)
latency change    = 1
throughput change = 1
Class 0:
Packet latency average = 20.384
	minimum = 7
	maximum = 38
Network latency average = 20.384
	minimum = 7
	maximum = 38
Slowest packet = 3912
Flit latency average = 20.384
	minimum = 7
	maximum = 38
Slowest flit = 3912
Fragmentation average = 0
	minimum = 0
	maximum = 0
Injected packet rate average = 0.007875
	minimum = 0.003 (at node 0)
	maximum = 0.014 (at node 4)
Accepted packet rate average = 0.0078125
	minimum = 0.003 (at node 0)
	maximum = 0.014 (at node 1)
Injected flit rate average = 0.007875
	minimum = 0.003 (at node 0)
	maximum = 0.014 (at node 4)
Accepted flit rate average= 0.0078125
	minimum = 0.003 (at node 0)
	maximum = 0.014 (at node 1)
Injected packet length average = 1
Accepted packet length average = 1
Total in-flight flits = 1 (0 measured)
latency change    = 0.0100709
throughput change = 0.104
Class 0:
Packet latency average = 20.0128
	minimum = 7
	maximum = 40
Network latency average = 20.0128
	minimum = 7
	maximum = 40
Slowest packet = 4003
Flit latency average = 20.0128
	minimum = 7
	maximum = 40
Slowest flit = 4003
Fragmentation average = 0
	minimum = 0
	maximum = 0
Injected packet rate average = 0.010125
	minimum = 0.004 (at node 4)
	maximum = 0.016 (at node 1)
Accepted packet rate average = 0.00975
	minimum = 0.004 (at node 1)
	maximum = 0.016 (at node 4)
Injected flit rate average = 0.010125
	minimum = 0.004 (at node 4)
	maximum = 0.016 (at node 1)
Accepted flit rate average= 0.00975
	minimum = 0.004 (at node 1)
	maximum = 0.016 (at node 4)
Injected packet length average = 1
Accepted packet length average = 1
Total in-flight flits = 4 (0 measured)
latency change    = 0.0185471
throughput change = 0.198718
Warmed up ...Time used is 1500 cycles
Class 0:
Packet latency average = 22.9863
	minimum = 7
	maximum = 43
Network latency average = 22.9863
	minimum = 7
	maximum = 43
Slowest packet = 4037
Flit latency average = 23.3247
	minimum = 7
	maximum = 43
Slowest flit = 4037
Fragmentation average = 0
	minimum = 0
	maximum = 0
Injected packet rate average = 0.009375
	minimum = 0 (at node 5)
	maximum = 0.016 (at node 6)
Accepted packet rate average = 0.009625
	minimum = 0 (at node 5)
	maximum = 0.018 (at node 3)
Injected flit rate average = 0.009375
	minimum = 0 (at node 5)
	maximum = 0.016 (at node 6)
Accepted flit rate average= 0.009625
	minimum = 0 (at node 5)
	maximum = 0.018 (at node 3)
Injected packet length average = 1
Accepted packet length average = 1
Total in-flight flits = 2 (2 measured)
latency change    = 0.129359
throughput change = 0.012987
Class 0:
Packet latency average = 21.6025
	minimum = 7
	maximum = 46
Network latency average = 21.6025
	minimum = 7
	maximum = 46
Slowest packet = 4117
Flit latency average = 21.7939
	minimum = 7
	maximum = 46
Slowest flit = 4117
Fragmentation average = 0
	minimum = 0
	maximum = 0
Injected packet rate average = 0.0103125
	minimum = 0.003 (at node 5)
	maximum = 0.014 (at node 3)
Accepted packet rate average = 0.0103125
	minimum = 0.003 (at node 5)
	maximum = 0.014 (at node 2)
Injected flit rate average = 0.0103125
	minimum = 0.003 (at node 5)
	maximum = 0.014 (at node 3)
Accepted flit rate average= 0.0103125
	minimum = 0.003 (at node 5)
	maximum = 0.014 (at node 2)
Injected packet length average = 1
Accepted packet length average = 1
Total in-flight flits = 4 (4 measured)
latency change    = 0.0640582
throughput change = 0.0666667
Class 0:
Packet latency average = 21.2753
	minimum = 7
	maximum = 46
Network latency average = 21.2753
	minimum = 7
	maximum = 46
Slowest packet = 4117
Flit latency average = 21.4064
	minimum = 7
	maximum = 46
Slowest flit = 4117
Fragmentation average = 0
	minimum = 0
	maximum = 0
Injected packet rate average = 0.010375
	minimum = 0.004 (at node 5)
	maximum = 0.0146667 (at node 4)
Accepted packet rate average = 0.0104583
	minimum = 0.004 (at node 5)
	maximum = 0.0146667 (at node 1)
Injected flit rate average = 0.010375
	minimum = 0.004 (at node 5)
	maximum = 0.0146667 (at node 4)
Accepted flit rate average= 0.0104583
	minimum = 0.004 (at node 5)
	maximum = 0.0146667 (at node 1)
Injected packet length average = 1
Accepted packet length average = 1
Total in-flight flits = 2 (2 measured)
latency change    = 0.0153784
throughput change = 0.0139442
Class 0:
Packet latency average = 20.9907
	minimum = 7
	maximum = 46
Network latency average = 20.9907
	minimum = 7
	maximum = 46
Slowest packet = 4117
Flit latency average = 21.0948
	minimum = 7
	maximum = 46
Slowest flit = 4117
Fragmentation average = 0
	minimum = 0
	maximum = 0
Injected packet rate average = 0.010125
	minimum = 0.0055 (at node 5)
	maximum = 0.0145 (at node 4)
Accepted packet rate average = 0.0102188
	minimum = 0.0055 (at node 5)
	maximum = 0.0145 (at node 1)
Injected flit rate average = 0.010125
	minimum = 0.0055 (at node 5)
	maximum = 0.0145 (at node 4)
Accepted flit rate average= 0.0102188
	minimum = 0.0055 (at node 5)
	maximum = 0.0145 (at node 1)
Injected packet length average = 1
Accepted packet length average = 1
Total in-flight flits = 1 (1 measured)
latency change    = 0.013558
throughput change = 0.0234455
Class 0:
Packet latency average = 20.6667
	minimum = 7
	maximum = 46
Network latency average = 20.6667
	minimum = 7
	maximum = 46
Slowest packet = 4117
Flit latency average = 20.7506
	minimum = 7
	maximum = 46
Slowest flit = 4117
Fragmentation average = 0
	minimum = 0
	maximum = 0
Injected packet rate average = 0.010525
	minimum = 0.0064 (at node 5)
	maximum = 0.0132 (at node 3)
Accepted packet rate average = 0.010525
	minimum = 0.0064 (at node 5)
	maximum = 0.0132 (at node 12)
Injected flit rate average = 0.010525
	minimum = 0.0064 (at node 5)
	maximum = 0.0132 (at node 3)
Accepted flit rate average= 0.010525
	minimum = 0.0064 (at node 5)
	maximum = 0.0132 (at node 12)
Injected packet length average = 1
Accepted packet length average = 1
Total in-flight flits = 4 (4 measured)
latency change    = 0.0156796
throughput change = 0.0290974
Draining all recorded packets ...
Draining remaining packets ...
Time taken is 4044 cycles
Class 0:
Packet latency average = 19.8101
	minimum = 7
	maximum = 40
Network latency average = 19.8101
	minimum = 7
	maximum = 40
Slowest packet = 4505
Flit latency average = 19.8101
	minimum = 7
	maximum = 40
Slowest flit = 4505
Fragmentation average = 0
	minimum = 0
	maximum = 0
Injected packet rate average = 0.009875
	minimum = 0 (at node 9)
	maximum = 0.016 (at node 3)
Accepted packet rate average = 0.009875
	minimum = 0 (at node 6)
	maximum = 0.016 (at node 2)
Injected flit rate average = 0.009875
	minimum = 0 (at node 9)
	maximum = 0.016 (at node 3)
Accepted flit rate average= 0.009875
	minimum = 0 (at node 6)
	maximum = 0.016 (at node 2)
Injected packet length average = 1
Accepted packet length average = 1
Total in-flight flits = 0 (0 measured)
latency change    = 1
throughput change = 1
Class 0:
Packet latency average = 19.0625
	minimum = 7
	maximum = 40
Network latency average = 19.0625
	minimum = 7
	maximum = 40
Slowest packet = 4505
Flit latency average = 19.0625
	minimum = 7
	maximum = 40
Slowest flit = 4505
Fragmentation average = 0
	minimum = 0
	maximum = 0
Injected packet rate average = 0.0111875
	minimum = 0.004 (at node 7)
	maximum = 0.018 (at node 10)
Accepted packet rate average = 0.011
	minimum = 0.004 (at node 6)
	maximum = 0.018 (at node 10)
Injected flit rate average = 0.0111875
	minimum = 0.004 (at node 7)
	maximum = 0.018 (at node 10)
Accepted flit rate average= 0.011
	minimum = 0.004 (at node 6)
	maximum = 0.018 (at node 10)
Injected packet length average = 1
Accepted packet length average = 1
Total in-flight flits = 3 (0 measured)
latency change    = 0.0392198
throughput change = 0.102273
Class 0:
Packet latency average = 19.3425
	minimum = 7
	maximum = 45
Network latency average = 19.3425
	minimum = 7
	maximum = 45
Slowest packet = 4693
Flit latency average = 19.3425
	minimum = 7
	maximum = 45
Slowest flit = 4693
Fragmentation average = 0
	minimum = 0
	maximum = 0
Injected packet rate average = 0.009
	minimum = 0.004 (at node 12)
	maximum = 0.018 (at node 14)
Accepted packet rate average = 0.009125
	minimum = 0.004 (at node 3)
	maximum = 0.018 (at node 11)
Injected flit rate average = 0.009
	minimum = 0.004 (at node 12)
	maximum = 0.018 (at node 14)
Accepted flit rate average= 0.009125
	minimum = 0.004 (at node 3)
	maximum = 0.018 (at node 11)
Injected packet length average = 1
Accepted packet length average = 1
Total in-flight flits = 2 (0 measured)
latency change    = 0.0144742
throughput change = 0.205479
Warmed up ...Time used is 1500 cycles
Class 0:
Packet latency average = 22.0127
	minimum = 7
	maximum = 43
Network latency average = 22.0127
	minimum = 7
	maximum = 43
Slowest packet = 4741
Flit latency average = 22.1358
	minimum = 7
	maximum = 43
Slowest flit = 4741
Fragmentation average = 0
	minimum = 0
	maximum = 0
Injected packet rate average = 0.010125
	minimum = 0 (at node 13)
	maximum = 0.018 (at node 4)
Accepted packet rate average = 0.010125
	minimum = 0 (at node 7)
	maximum = 0.018 (at node 1)
Injected flit rate average = 0.010125
	minimum = 0 (at node 13)
	maximum = 0.018 (at node 4)
Accepted flit rate average= 0.010125
	minimum = 0 (at node 7)
	maximum = 0.018 (at node 1)
Injected packet length average = 1
Accepted packet length average = 1
Total in-flight flits = 2 (2 measured)
latency change    = 0.121303
throughput change = 0.0987654
Class 0:
Packet latency average = 20.5793
	minimum = 7
	maximum = 43
Network latency average = 20.5793
	minimum = 7
	maximum = 43
Slowest packet = 4741
Flit latency average = 20.6566
	minimum = 7
	maximum = 43
Slowest flit = 4741
Fragmentation average = 0
	minimum = 0
	maximum = 0
Injected packet rate average = 0.0105625
	minimum = 0.003 (at node 13)
	maximum = 0.017 (at node 4)
Accepted packet rate average = 0.010375
	minimum = 0.003 (at node 7)
	maximum = 0.016 (at node 1)
Injected flit rate average = 0.0105625
	minimum = 0.003 (at node 13)
	maximum = 0.017 (at node 4)
Accepted flit rate average= 0.010375
	minimum = 0.003 (at node 7)
	maximum = 0.016 (at node 1)
Injected packet length average = 1
Accepted packet length average = 1
Total in-flight flits = 5 (5 measured)
latency change    = 0.0696521
throughput change = 0.0240964
Class 0:
Packet latency average = 20.5949
	minimum = 7
	maximum = 43
Network latency average = 20.5949
	minimum = 7
	maximum = 43
Slowest packet = 4741
Flit latency average = 20.6485
	minimum = 7
	maximum = 43
Slowest flit = 4741
Fragmentation average = 0
	minimum = 0
	maximum = 0
Injected packet rate average = 0.0100417
	minimum = 0.00533333 (at node 13)
	maximum = 0.0146667 (at node 8)
Accepted packet rate average = 0.00995833
	minimum = 0.00533333 (at node 7)
	maximum = 0.0133333 (at node 2)
Injected flit rate average = 0.0100417
	minimum = 0.00533333 (at node 13)
	maximum = 0.0146667 (at node 8)
Accepted flit rate average= 0.00995833
	minimum = 0.00533333 (at node 7)
	maximum = 0.0133333 (at node 2)
Injected packet length average = 1
Accepted packet length average = 1
Total in-flight flits = 4 (4 measured)
latency change    = 0.00076079
throughput change = 0.041841
Class 0:
Packet latency average = 20.4909
	minimum = 7
	maximum = 45
Network latency average = 20.4909
	minimum = 7
	maximum = 45
Slowest packet = 4999
Flit latency average = 20.5301
	minimum = 7
	maximum = 45
Slowest flit = 4999
Fragmentation average = 0
	minimum = 0
	maximum = 0
Injected packet rate average = 0.0103438
	minimum = 0.0055 (at node 13)
	maximum = 0.013 (at node 8)
Accepted packet rate average = 0.010375
	minimum = 0.0055 (at node 7)
	maximum = 0.013 (at node 2)
Injected flit rate average = 0.0103438
	minimum = 0.0055 (at node 13)
	maximum = 0.013 (at node 8)
Accepted flit rate average= 0.010375
	minimum = 0.0055 (at node 7)
	maximum = 0.013 (at node 2)
Injected packet length average = 1
Accepted packet length average = 1
Total in-flight flits = 1 (1 measured)
latency change    = 0.00507677
throughput change = 0.0401606
Class 0:
Packet latency average = 19.9538
	minimum = 7
	maximum = 45
Network latency average = 19.9538
	minimum = 7
	maximum = 45
Slowest packet = 4999
Flit latency average = 19.9898
	minimum = 7
	maximum = 45
Slowest flit = 4999
Fragmentation average = 0
	minimum = 0
	maximum = 0
Injected packet rate average = 0.009825
	minimum = 0.0056 (at node 13)
	maximum = 0.0128 (at node 4)
Accepted packet rate average = 0.0098
	minimum = 0.0056 (at node 7)
	maximum = 0.0128 (at node 1)
Injected flit rate average = 0.009825
	minimum = 0.0056 (at node 13)
	maximum = 0.0128 (at node 4)
Accepted flit rate average= 0.0098
	minimum = 0.0056 (at node 7)
	maximum = 0.0128 (at node 1)
Injected packet length average = 1
Accepted packet length average = 1
Total in-flight flits = 3 (3 measured)
latency change    = 0.0269153
throughput change = 0.0586735
Class 0:
Packet latency average = 20.2248
	minimum = 7
	maximum = 45
Network latency average = 20.2248
	minimum = 7
	maximum = 45
Slowest packet = 4999
Flit latency average = 20.2531
	minimum = 7
	maximum = 45
Slowest flit = 4999
Fragmentation average = 0
	minimum = 0
	maximum = 0
Injected packet rate average = 0.01
	minimum = 0.00666667 (at node 0)
	maximum = 0.0126667 (at node 14)
Accepted packet rate average = 0.00995833
	minimum = 0.00666667 (at node 0)
	maximum = 0.0126667 (at node 11)
Injected flit rate average = 0.01
	minimum = 0.00666667 (at node 0)
	maximum = 0.0126667 (at node 14)
Accepted flit rate average= 0.00995833
	minimum = 0.00666667 (at node 0)
	maximum = 0.0126667 (at node 11)
Injected packet length average = 1
Accepted packet length average = 1
Total in-flight flits = 4 (4 measured)
latency change    = 0.0133966
throughput change = 0.0158996
Class 0:
Packet latency average = 20.3451
	minimum = 7
	maximum = 45
Network latency average = 20.3451
	minimum = 7
	maximum = 45
Slowest packet = 4999
Flit latency average = 20.3684
	minimum = 7
	maximum = 45
Slowest flit = 4999
Fragmentation average = 0
	minimum = 0
	maximum = 0
Injected packet rate average = 0.0101964
	minimum = 0.00657143 (at node 0)
	maximum = 0.0122857 (at node 14)
Accepted packet rate average = 0.0101786
	minimum = 0.00657143 (at node 0)
	maximum = 0.0122857 (at node 11)
Injected flit rate average = 0.0101964
	minimum = 0.00657143 (at node 0)
	maximum = 0.0122857 (at node 14)
Accepted flit rate average= 0.0101786
	minimum = 0.00657143 (at node 0)
	maximum = 0.0122857 (at node 11)
Injected packet length average = 1
Accepted packet length average = 1
Total in-flight flits = 3 (3 measured)
latency change    = 0.00591202
throughput change = 0.0216374
Draining all recorded packets ...
Draining remaining packets ...
Time taken is 5033 cycles
Class 0:
Packet latency average = 20.2133
	minimum = 7
	maximum = 38
Network latency average = 20.2133
	minimum = 7
	maximum = 38
Slowest packet = 5286
Flit latency average = 20.2133
	minimum = 7
	maximum = 38
Slowest flit = 5286
Fragmentation average = 0
	minimum = 0
	maximum = 0
Injected packet rate average = 0.010125
	minimum = 0.002 (at node 0)
	maximum = 0.018 (at node 11)
Accepted packet rate average = 0.009375
	minimum = 0.002 (at node 0)
	maximum = 0.018 (at node 14)
Injected flit rate average = 0.010125
	minimum = 0.002 (at node 0)
	maximum = 0.018 (at node 11)
Accepted flit rate average= 0.009375
	minimum = 0.002 (at node 0)
	maximum = 0.018 (at node 14)
Injected packet length average = 1
Accepted packet length average = 1
Total in-flight flits = 6 (0 measured)
latency change    = 1
throughput change = 1
Class 0:
Packet latency average = 20.4765
	minimum = 7
	maximum = 41
Network latency average = 20.4765
	minimum = 7
	maximum = 41
Slowest packet = 5402
Flit latency average = 20.4765
	minimum = 7
	maximum = 41
Slowest flit = 5402
Fragmentation average = 0
	minimum = 0
	maximum = 0
Injected packet rate average = 0.009375
	minimum = 0.005 (at node 9)
	maximum = 0.016 (at node 11)
Accepted packet rate average = 0.0093125
	minimum = 0.005 (at node 6)
	maximum = 0.016 (at node 14)
Injected flit rate average = 0.009375
	minimum = 0.005 (at node 9)
	maximum = 0.016 (at node 11)
Accepted flit rate average= 0.0093125
	minimum = 0.005 (at node 6)
	maximum = 0.016 (at node 14)
Injected packet length average = 1
Accepted packet length average = 1
Total in-flight flits = 1 (0 measured)
latency change    = 0.0128526
throughput change = 0.00671141
Class 0:
Packet latency average = 20.7037
	minimum = 7
	maximum = 46
Network latency average = 20.7037
	minimum = 7
	maximum = 46
Slowest packet = 5481
Flit latency average = 20.7037
	minimum = 7
	maximum = 46
Slowest flit = 5481
Fragmentation average = 0
	minimum = 0
	maximum = 0
Injected packet rate average = 0.01025
	minimum = 0.004 (at node 4)
	maximum = 0.022 (at node 11)
Accepted packet rate average = 0.010125
	minimum = 0.004 (at node 3)
	maximum = 0.022 (at node 14)
Injected flit rate average = 0.01025
	minimum = 0.004 (at node 4)
	maximum = 0.022 (at node 11)
Accepted flit rate average= 0.010125
	minimum = 0.004 (at node 3)
	maximum = 0.022 (at node 14)
Injected packet length average = 1
Accepted packet length average = 1
Total in-flight flits = 2 (0 measured)
latency change    = 0.0109736
throughput change = 0.0802469
Warmed up ...Time used is 1500 cycles
Class 0:
Packet latency average = 20.3824
	minimum = 7
	maximum = 37
Network latency average = 20.3824
	minimum = 7
	maximum = 37
Slowest packet = 5517
Flit latency average = 20.7143
	minimum = 7
	maximum = 37
Slowest flit = 5511
Fragmentation average = 0
	minimum = 0
	maximum = 0
Injected packet rate average = 0.009
	minimum = 0.004 (at node 3)
	maximum = 0.016 (at node 7)
Accepted packet rate average = 0.00875
	minimum = 0.004 (at node 1)
	maximum = 0.016 (at node 2)
Injected flit rate average = 0.009
	minimum = 0.004 (at node 3)
	maximum = 0.016 (at node 7)
Accepted flit rate average= 0.00875
	minimum = 0.004 (at node 1)
	maximum = 0.016 (at node 2)
Injected packet length average = 1
Accepted packet length average = 1
Total in-flight flits = 4 (4 measured)
latency change    = 0.0157661
throughput change = 0.157143
Class 0:
Packet latency average = 20.1854
	minimum = 7
	maximum = 42
Network latency average = 20.1854
	minimum = 7
	maximum = 42
Slowest packet = 5589
Flit latency average = 20.3399
	minimum = 7
	maximum = 42
Slowest flit = 5589
Fragmentation average = 0
	minimum = 0
	maximum = 0
Injected packet rate average = 0.0096875
	minimum = 0.003 (at node 3)
	maximum = 0.018 (at node 7)
Accepted packet rate average = 0.0095625
	minimum = 0.003 (at node 12)
	maximum = 0.016 (at node 13)
Injected flit rate average = 0.0096875
	minimum = 0.003 (at node 3)
	maximum = 0.018 (at node 7)
Accepted flit rate average= 0.0095625
	minimum = 0.003 (at node 12)
	maximum = 0.016 (at node 13)
Injected packet length average = 1
Accepted packet length average = 1
Total in-flight flits = 4 (4 measured)
latency change    = 0.00975567
throughput change = 0.0849673
Class 0:
Packet latency average = 20.5291
	minimum = 7
	maximum = 45
Network latency average = 20.5291
	minimum = 7
	maximum = 45
Slowest packet = 5664
Flit latency average = 20.6311
	minimum = 7
	maximum = 45
Slowest flit = 5664
Fragmentation average = 0
	minimum = 0
	maximum = 0
Injected packet rate average = 0.0095
	minimum = 0.006 (at node 12)
	maximum = 0.016 (at node 7)
Accepted packet rate average = 0.009375
	minimum = 0.006 (at node 3)
	maximum = 0.016 (at node 13)
Injected flit rate average = 0.0095
	minimum = 0.006 (at node 12)
	maximum = 0.016 (at node 7)
Accepted flit rate average= 0.009375
	minimum = 0.006 (at node 3)
	maximum = 0.016 (at node 13)
Injected packet length average = 1
Accepted packet length average = 1
Total in-flight flits = 5 (5 measured)
latency change    = 0.0167429
throughput change = 0.02
Class 0:
Packet latency average = 20.6447
	minimum = 7
	maximum = 45
Network latency average = 20.6447
	minimum = 7
	maximum = 45
Slowest packet = 5664
Flit latency average = 20.719
	minimum = 7
	maximum = 45
Slowest flit = 5664
Fragmentation average = 0
	minimum = 0
	maximum = 0
Injected packet rate average = 0.00953125
	minimum = 0.0075 (at node 12)
	maximum = 0.0145 (at node 7)
Accepted packet rate average = 0.0095625
	minimum = 0.008 (at node 3)
	maximum = 0.0145 (at node 13)
Injected flit rate average = 0.00953125
	minimum = 0.0075 (at node 12)
	maximum = 0.0145 (at node 7)
Accepted flit rate average= 0.0095625
	minimum = 0.008 (at node 3)
	maximum = 0.0145 (at node 13)
Injected packet length average = 1
Accepted packet length average = 1
Total in-flight flits = 1 (1 measured)
latency change    = 0.00559895
throughput change = 0.0196078
Class 0:
Packet latency average = 20.3369
	minimum = 7
	maximum = 45
Network latency average = 20.3369
	minimum = 7
	maximum = 45
Slowest packet = 5664
Flit latency average = 20.3989
	minimum = 7
	maximum = 45
Slowest flit = 5664
Fragmentation average = 0
	minimum = 0
	maximum = 0
Injected packet rate average = 0.009375
	minimum = 0.0072 (at node 6)
	maximum = 0.0132 (at node 7)
Accepted packet rate average = 0.0094
	minimum = 0.0072 (at node 9)
	maximum = 0.0132 (at node 13)
Injected flit rate average = 0.009375
	minimum = 0.0072 (at node 6)
	maximum = 0.0132 (at node 7)
Accepted flit rate average= 0.0094
	minimum = 0.0072 (at node 9)
	maximum = 0.0132 (at node 13)
Injected packet length average = 1
Accepted packet length average = 1
Total in-flight flits = 1 (1 measured)
latency change    = 0.0151369
throughput change = 0.0172872
Draining all recorded packets ...
Draining remaining packets ...
Time taken is 4046 cycles
Class 0:
Packet latency average = 19.7848
	minimum = 7
	maximum = 37
Network latency average = 19.7848
	minimum = 7
	maximum = 37
Slowest packet = 5893
Flit latency average = 19.7848
	minimum = 7
	maximum = 37
Slowest flit = 5893
Fragmentation average = 0
	minimum = 0
	maximum = 0
Injected packet rate average = 0.01025
	minimum = 0.002 (at node 15)
	maximum = 0.022 (at node 7)
Accepted packet rate average = 0.009875
	minimum = 0 (at node 3)
	maximum = 0.02 (at node 13)
Injected flit rate average = 0.01025
	minimum = 0.002 (at node 15)
	maximum = 0.022 (at node 7)
Accepted flit rate average= 0.009875
	minimum = 0 (at node 3)
	maximum = 0.02 (at node 13)
Injected packet length average = 1
Accepted packet length average = 1
Total in-flight flits = 3 (0 measured)
latency change    = 1
throughput change = 1
Class 0:
Packet latency average = 19.981
	minimum = 7
	maximum = 43
Network latency average = 19.981
	minimum = 7
	maximum = 43
Slowest packet = 6015
Flit latency average = 19.981
	minimum = 7
	maximum = 43
Slowest flit = 6015
Fragmentation average = 0
	minimum = 0
	maximum = 0
Injected packet rate average = 0.010125
	minimum = 0.005 (at node 11)
	maximum = 0.018 (at node 7)
Accepted packet rate average = 0.009875
	minimum = 0.005 (at node 3)
	maximum = 0.018 (at node 13)
Injected flit rate average = 0.010125
	minimum = 0.005 (at node 11)
	maximum = 0.018 (at node 7)
Accepted flit rate average= 0.009875
	minimum = 0.005 (at node 3)
	maximum = 0.018 (at node 13)
Injected packet length average = 1
Accepted packet length average = 1
Total in-flight flits = 4 (0 measured)
latency change    = 0.00981945
throughput change = 0
Class 0:
Packet latency average = 19.1184
	minimum = 7
	maximum = 38
Network latency average = 19.1184
	minimum = 7
	maximum = 38
Slowest packet = 6096
Flit latency average = 19.1184
	minimum = 7
	maximum = 38
Slowest flit = 6096
Fragmentation average = 0
	minimum = 0
	maximum = 0
Injected packet rate average = 0.00925
	minimum = 0.002 (at node 1)
	maximum = 0.018 (at node 10)
Accepted packet rate average = 0.0095
	minimum = 0 (at node 4)
	maximum = 0.018 (at node 0)
Injected flit rate average = 0.00925
	minimum = 0.002 (at node 1)
	maximum = 0.018 (at node 10)
Accepted flit rate average= 0.0095
	minimum = 0 (at node 4)
	maximum = 0.018 (at node 0)
Injected packet length average = 1
Accepted packet length average = 1
Total in-flight flits = 2 (0 measured)
latency change    = 0.0451183
throughput change = 0.0394737
Warmed up ...Time used is 1500 cycles
Class 0:
Packet latency average = 19.6866
	minimum = 7
	maximum = 37
Network latency average = 19.6866
	minimum = 7
	maximum = 37
Slowest packet = 6130
Flit latency average = 19.6087
	minimum = 7
	maximum = 37
Slowest flit = 6130
Fragmentation average = 0
	minimum = 0
	maximum = 0
Injected packet rate average = 0.008625
	minimum = 0.004 (at node 7)
	maximum = 0.016 (at node 3)
Accepted packet rate average = 0.008625
	minimum = 0.004 (at node 3)
	maximum = 0.014 (at node 9)
Injected flit rate average = 0.008625
	minimum = 0.004 (at node 7)
	maximum = 0.016 (at node 3)
Accepted flit rate average= 0.008625
	minimum = 0.004 (at node 3)
	maximum = 0.014 (at node 9)
Injected packet length average = 1
Accepted packet length average = 1
Total in-flight flits = 2 (2 measured)
latency change    = 0.0288596
throughput change = 0.101449
Class 0:
Packet latency average = 20.6241
	minimum = 7
	maximum = 38
Network latency average = 20.6241
	minimum = 7
	maximum = 38
Slowest packet = 6220
Flit latency average = 20.5704
	minimum = 7
	maximum = 38
Slowest flit = 6220
Fragmentation average = 0
	minimum = 0
	maximum = 0
Injected packet rate average = 0.0085625
	minimum = 0.004 (at node 15)
	maximum = 0.013 (at node 0)
Accepted packet rate average = 0.0084375
	minimum = 0.004 (at node 10)
	maximum = 0.013 (at node 0)
Injected flit rate average = 0.0085625
	minimum = 0.004 (at node 15)
	maximum = 0.013 (at node 0)
Accepted flit rate average= 0.0084375
	minimum = 0.004 (at node 10)
	maximum = 0.013 (at node 0)
Injected packet length average = 1
Accepted packet length average = 1
Total in-flight flits = 4 (4 measured)
latency change    = 0.0454563
throughput change = 0.0222222
Class 0:
Packet latency average = 20.5204
	minimum = 7
	maximum = 43
Network latency average = 20.5204
	minimum = 7
	maximum = 43
Slowest packet = 6271
Flit latency average = 20.4888
	minimum = 7
	maximum = 43
Slowest flit = 6271
Fragmentation average = 0
	minimum = 0
	maximum = 0
Injected packet rate average = 0.009375
	minimum = 0.00466667 (at node 15)
	maximum = 0.0153333 (at node 0)
Accepted packet rate average = 0.00929167
	minimum = 0.00466667 (at node 15)
	maximum = 0.0153333 (at node 0)
Injected flit rate average = 0.009375
	minimum = 0.00466667 (at node 15)
	maximum = 0.0153333 (at node 0)
Accepted flit rate average= 0.00929167
	minimum = 0.00466667 (at node 15)
	maximum = 0.0153333 (at node 0)
Injected packet length average = 1
Accepted packet length average = 1
Total in-flight flits = 4 (4 measured)
latency change    = 0.00505343
throughput change = 0.0919283
Class 0:
Packet latency average = 20.36
	minimum = 7
	maximum = 43
Network latency average = 20.36
	minimum = 7
	maximum = 43
Slowest packet = 6271
Flit latency average = 20.3377
	minimum = 7
	maximum = 43
Slowest flit = 6271
Fragmentation average = 0
	minimum = 0
	maximum = 0
Injected packet rate average = 0.0095
	minimum = 0.0045 (at node 13)
	maximum = 0.0135 (at node 0)
Accepted packet rate average = 0.0094375
	minimum = 0.0045 (at node 7)
	maximum = 0.0135 (at node 0)
Injected flit rate average = 0.0095
	minimum = 0.0045 (at node 13)
	maximum = 0.0135 (at node 0)
Accepted flit rate average= 0.0094375
	minimum = 0.0045 (at node 7)
	maximum = 0.0135 (at node 0)
Injected packet length average = 1
Accepted packet length average = 1
Total in-flight flits = 4 (4 measured)
latency change    = 0.00787633
throughput change = 0.0154525
Class 0:
Packet latency average = 20.4959
	minimum = 7
	maximum = 43
Network latency average = 20.4959
	minimum = 7
	maximum = 43
Slowest packet = 6271
Flit latency average = 20.4771
	minimum = 7
	maximum = 43
Slowest flit = 6271
Fragmentation average = 0
	minimum = 0
	maximum = 0
Injected packet rate average = 0.009325
	minimum = 0.0068 (at node 15)
	maximum = 0.0124 (at node 0)
Accepted packet rate average = 0.009275
	minimum = 0.0068 (at node 7)
	maximum = 0.0124 (at node 0)
Injected flit rate average = 0.009325
	minimum = 0.0068 (at node 15)
	maximum = 0.0124 (at node 0)
Accepted flit rate average= 0.009275
	minimum = 0.0068 (at node 7)
	maximum = 0.0124 (at node 0)
Injected packet length average = 1
Accepted packet length average = 1
Total in-flight flits = 4 (4 measured)
latency change    = 0.00663229
throughput change = 0.0175202
Class 0:
Packet latency average = 20.6333
	minimum = 7
	maximum = 45
Network latency average = 20.6333
	minimum = 7
	maximum = 45
Slowest packet = 6561
Flit latency average = 20.6173
	minimum = 7
	maximum = 45
Slowest flit = 6561
Fragmentation average = 0
	minimum = 0
	maximum = 0
Injected packet rate average = 0.0094375
	minimum = 0.00666667 (at node 13)
	maximum = 0.012 (at node 8)
Accepted packet rate average = 0.00941667
	minimum = 0.00666667 (at node 7)
	maximum = 0.0116667 (at node 0)
Injected flit rate average = 0.0094375
	minimum = 0.00666667 (at node 13)
	maximum = 0.012 (at node 8)
Accepted flit rate average= 0.00941667
	minimum = 0.00666667 (at node 7)
	maximum = 0.0116667 (at node 0)
Injected packet length average = 1
Accepted packet length average = 1
Total in-flight flits = 3 (3 measured)
latency change    = 0.00665905
throughput change = 0.0150442
Draining all recorded packets ...
Draining remaining packets ...
Time taken is 4517 cycles
Class 0:
Packet latency average = 18.791
	minimum = 7
	maximum = 37
Network latency average = 18.791
	minimum = 7
	maximum = 37
Slowest packet = 6583
Flit latency average = 18.791
	minimum = 7
	maximum = 37
Slowest flit = 6583
Fragmentation average = 0
	minimum = 0
	maximum = 0
Injected packet rate average = 0.008625
	minimum = 0.004 (at node 3)
	maximum = 0.02 (at node 9)
Accepted packet rate average = 0.008375
	minimum = 0.004 (at node 7)
	maximum = 0.018 (at node 6)
Injected flit rate average = 0.008625
	minimum = 0.004 (at node 3)
	maximum = 0.02 (at node 9)
Accepted flit rate average= 0.008375
	minimum = 0.004 (at node 7)
	maximum = 0.018 (at node 6)
Injected packet length average = 1
Accepted packet length average = 1
Total in-flight flits = 2 (0 measured)
latency change    = 1
throughput change = 1
Class 0:
Packet latency average = 19.4968
	minimum = 7
	maximum = 39
Network latency average = 19.4968
	minimum = 7
	maximum = 39
Slowest packet = 6720
Flit latency average = 19.4968
	minimum = 7
	maximum = 39
Slowest flit = 6720
Fragmentation average = 0
	minimum = 0
	maximum = 0
Injected packet rate average = 0.009875
	minimum = 0.006 (at node 6)
	maximum = 0.014 (at node 9)
Accepted packet rate average = 0.0098125
	minimum = 0.006 (at node 9)
	maximum = 0.014 (at node 6)
Injected flit rate average = 0.009875
	minimum = 0.006 (at node 6)
	maximum = 0.014 (at node 9)
Accepted flit rate average= 0.0098125
	minimum = 0.006 (at node 9)
	maximum = 0.014 (at node 6)
Injected packet length average = 1
Accepted packet length average = 1
Total in-flight flits = 1 (0 measured)
latency change    = 0.0361993
throughput change = 0.146497
Class 0:
Packet latency average = 18.961
	minimum = 7
	maximum = 38
Network latency average = 18.961
	minimum = 7
	maximum = 38
Slowest packet = 6780
Flit latency average = 18.961
	minimum = 7
	maximum = 38
Slowest flit = 6780
Fragmentation average = 0
	minimum = 0
	maximum = 0
Injected packet rate average = 0.009625
	minimum = 0.006 (at node 1)
	maximum = 0.016 (at node 4)
Accepted packet rate average = 0.009625
	minimum = 0.006 (at node 3)
	maximum = 0.016 (at node 1)
Injected flit rate average = 0.009625
	minimum = 0.006 (at node 1)
	maximum = 0.016 (at node 4)
Accepted flit rate average= 0.009625
	minimum = 0.006 (at node 3)
	maximum = 0.016 (at node 1)
Injected packet length average = 1
Accepted packet length average = 1
Total in-flight flits = 1 (0 measured)
latency change    = 0.0282567
throughput change = 0.0194805
Warmed up ...Time used is 1500 cycles
Class 0:
Packet latency average = 18.1077
	minimum = 7
	maximum = 38
Network latency average = 18.1077
	minimum = 7
	maximum = 38
Slowest packet = 6819
Flit latency average = 18.3939
	minimum = 7
	maximum = 38
Slowest flit = 6819
Fragmentation average = 0
	minimum = 0
	maximum = 0
Injected packet rate average = 0.0085
	minimum = 0.002 (at node 7)
	maximum = 0.016 (at node 5)
Accepted packet rate average = 0.00825
	minimum = 0.002 (at node 15)
	maximum = 0.016 (at node 5)
Injected flit rate average = 0.0085
	minimum = 0.002 (at node 7)
	maximum = 0.016 (at node 5)
Accepted flit rate average= 0.00825
	minimum = 0.002 (at node 15)
	maximum = 0.016 (at node 5)
Injected packet length average = 1
Accepted packet length average = 1
Total in-flight flits = 3 (3 measured)
latency change    = 0.0471262
throughput change = 0.166667
Class 0:
Packet latency average = 19.5882
	minimum = 7
	maximum = 44
Network latency average = 19.5882
	minimum = 7
	maximum = 44
Slowest packet = 6902
Flit latency average = 19.7013
	minimum = 7
	maximum = 44
Slowest flit = 6902
Fragmentation average = 0
	minimum = 0
	maximum = 0
Injected packet rate average = 0.00975
	minimum = 0.005 (at node 9)
	maximum = 0.016 (at node 5)
Accepted packet rate average = 0.009625
	minimum = 0.005 (at node 6)
	maximum = 0.016 (at node 5)
Injected flit rate average = 0.00975
	minimum = 0.005 (at node 9)
	maximum = 0.016 (at node 5)
Accepted flit rate average= 0.009625
	minimum = 0.005 (at node 6)
	maximum = 0.016 (at node 5)
Injected packet length average = 1
Accepted packet length average = 1
Total in-flight flits = 3 (3 measured)
latency change    = 0.0755833
throughput change = 0.142857
Class 0:
Packet latency average = 20.0084
	minimum = 7
	maximum = 44
Network latency average = 20.0084
	minimum = 7
	maximum = 44
Slowest packet = 6902
Flit latency average = 20.0798
	minimum = 7
	maximum = 44
Slowest flit = 6902
Fragmentation average = 0
	minimum = 0
	maximum = 0
Injected packet rate average = 0.00995833
	minimum = 0.006 (at node 9)
	maximum = 0.016 (at node 4)
Accepted packet rate average = 0.00991667
	minimum = 0.006 (at node 6)
	maximum = 0.016 (at node 1)
Injected flit rate average = 0.00995833
	minimum = 0.006 (at node 9)
	maximum = 0.016 (at node 4)
Accepted flit rate average= 0.00991667
	minimum = 0.006 (at node 6)
	maximum = 0.016 (at node 1)
Injected packet length average = 1
Accepted packet length average = 1
Total in-flight flits = 2 (2 measured)
latency change    = 0.0210013
throughput change = 0.0294118
Class 0:
Packet latency average = 20.1173
	minimum = 7
	maximum = 44
Network latency average = 20.1173
	minimum = 7
	maximum = 44
Slowest packet = 6902
Flit latency average = 20.1721
	minimum = 7
	maximum = 44
Slowest flit = 6902
Fragmentation average = 0
	minimum = 0
	maximum = 0
Injected packet rate average = 0.00971875
	minimum = 0.0065 (at node 9)
	maximum = 0.0135 (at node 4)
Accepted packet rate average = 0.009625
	minimum = 0.0065 (at node 6)
	maximum = 0.0135 (at node 1)
Injected flit rate average = 0.00971875
	minimum = 0.0065 (at node 9)
	maximum = 0.0135 (at node 4)
Accepted flit rate average= 0.009625
	minimum = 0.0065 (at node 6)
	maximum = 0.0135 (at node 1)
Injected packet length average = 1
Accepted packet length average = 1
Total in-flight flits = 4 (4 measured)
latency change    = 0.00540953
throughput change = 0.030303
Class 0:
Packet latency average = 19.9084
	minimum = 7
	maximum = 44
Network latency average = 19.9084
	minimum = 7
	maximum = 44
Slowest packet = 6902
Flit latency average = 19.9518
	minimum = 7
	maximum = 44
Slowest flit = 6902
Fragmentation average = 0
	minimum = 0
	maximum = 0
Injected packet rate average = 0.01
	minimum = 0.0068 (at node 9)
	maximum = 0.0128 (at node 5)
Accepted packet rate average = 0.00985
	minimum = 0.0068 (at node 6)
	maximum = 0.0128 (at node 5)
Injected flit rate average = 0.01
	minimum = 0.0068 (at node 9)
	maximum = 0.0128 (at node 5)
Accepted flit rate average= 0.00985
	minimum = 0.0068 (at node 6)
	maximum = 0.0128 (at node 5)
Injected packet length average = 1
Accepted packet length average = 1
Total in-flight flits = 7 (7 measured)
latency change    = 0.0104914
throughput change = 0.0228426
Draining all recorded packets ...
Draining remaining packets ...
Time taken is 4035 cycles
Class 0:
Packet latency average = 20
	minimum = 7
	maximum = 37
Network latency average = 20
	minimum = 7
	maximum = 37
Slowest packet = 7222
Flit latency average = 20
	minimum = 7
	maximum = 37
Slowest flit = 7222
Fragmentation average = 0
	minimum = 0
	maximum = 0
Injected packet rate average = 0.009875
	minimum = 0.002 (at node 15)
	maximum = 0.018 (at node 3)
Accepted packet rate average = 0.0095
	minimum = 0.002 (at node 15)
	maximum = 0.018 (at node 12)
Injected flit rate average = 0.009875
	minimum = 0.002 (at node 15)
	maximum = 0.018 (at node 3)
Accepted flit rate average= 0.0095
	minimum = 0.002 (at node 15)
	maximum = 0.018 (at node 12)
Injected packet length average = 1
Accepted packet length average = 1
Total in-flight flits = 3 (0 measured)
latency change    = 1
throughput change = 1
Class 0:
Packet latency average = 20.2662
	minimum = 7
	maximum = 37
Network latency average = 20.2662
	minimum = 7
	maximum = 37
Slowest packet = 7222
Flit latency average = 20.2662
	minimum = 7
	maximum = 37
Slowest flit = 7222
Fragmentation average = 0
	minimum = 0
	maximum = 0
Injected packet rate average = 0.009875
	minimum = 0.005 (at node 13)
	maximum = 0.014 (at node 1)
Accepted packet rate average = 0.009625
	minimum = 0.005 (at node 7)
	maximum = 0.014 (at node 4)
Injected flit rate average = 0.009875
	minimum = 0.005 (at node 13)
	maximum = 0.014 (at node 1)
Accepted flit rate average= 0.009625
	minimum = 0.005 (at node 7)
	maximum = 0.014 (at node 4)
Injected packet length average = 1
Accepted packet length average = 1
Total in-flight flits = 4 (0 measured)
latency change    = 0.0131368
throughput change = 0.012987
Class 0:
Packet latency average = 21.5543
	minimum = 7
	maximum = 38
Network latency average = 21.5543
	minimum = 7
	maximum = 38
Slowest packet = 7408
Flit latency average = 21.5543
	minimum = 7
	maximum = 38
Slowest flit = 7408
Fragmentation average = 0
	minimum = 0
	maximum = 0
Injected packet rate average = 0.011125
	minimum = 0.004 (at node 14)
	maximum = 0.02 (at node 4)
Accepted packet rate average = 0.0115
	minimum = 0.004 (at node 11)
	maximum = 0.02 (at node 1)
Injected flit rate average = 0.011125
	minimum = 0.004 (at node 14)
	maximum = 0.02 (at node 4)
Accepted flit rate average= 0.0115
	minimum = 0.004 (at node 11)
[...]
	maximum = 46
Slowest packet = 30311
Flit latency average = 19.8324
	minimum = 7
	maximum = 46
Slowest flit = 30311
Fragmentation average = 0
	minimum = 0
	maximum = 0
Injected packet rate average = 0.0105625
	minimum = 0.008 (at node 1)
	maximum = 0.016 (at node 9)
Accepted packet rate average = 0.0108125
	minimum = 0.008 (at node 1)
	maximum = 0.016 (at node 6)
Injected flit rate average = 0.0105625
	minimum = 0.008 (at node 1)
	maximum = 0.016 (at node 9)
Accepted flit rate average= 0.0108125
	minimum = 0.008 (at node 1)
	maximum = 0.016 (at node 6)
Injected packet length average = 1
Accepted packet length average = 1
Total in-flight flits = 1 (1 measured)
latency change    = 0.0769231
throughput change = 0.017341
Class 0:
Packet latency average = 19.1961
	minimum = 7
	maximum = 46
Network latency average = 19.1961
	minimum = 7
	maximum = 46
Slowest packet = 30311
Flit latency average = 19.4231
	minimum = 7
	maximum = 46
Slowest flit = 30311
Fragmentation average = 0
	minimum = 0
	maximum = 0
Injected packet rate average = 0.01075
	minimum = 0.00733333 (at node 3)
	maximum = 0.016 (at node 13)
Accepted packet rate average = 0.0108333
	minimum = 0.00733333 (at node 12)
	maximum = 0.0166667 (at node 7)
Injected flit rate average = 0.01075
	minimum = 0.00733333 (at node 3)
	maximum = 0.016 (at node 13)
Accepted flit rate average= 0.0108333
	minimum = 0.00733333 (at node 12)
	maximum = 0.0166667 (at node 7)
Injected packet length average = 1
Accepted packet length average = 1
Total in-flight flits = 3 (3 measured)
latency change    = 0.0158325
throughput change = 0.00192308
Class 0:
Packet latency average = 18.8349
	minimum = 7
	maximum = 46
Network latency average = 18.8349
	minimum = 7
	maximum = 46
Slowest packet = 30311
Flit latency average = 19.0215
	minimum = 7
	maximum = 46
Slowest flit = 30311
Fragmentation average = 0
	minimum = 0
	maximum = 0
Injected packet rate average = 0.0101563
	minimum = 0.0065 (at node 12)
	maximum = 0.015 (at node 13)
Accepted packet rate average = 0.0101875
	minimum = 0.007 (at node 12)
	maximum = 0.0155 (at node 7)
Injected flit rate average = 0.0101563
	minimum = 0.0065 (at node 12)
	maximum = 0.015 (at node 13)
Accepted flit rate average= 0.0101875
	minimum = 0.007 (at node 12)
	maximum = 0.0155 (at node 7)
Injected packet length average = 1
Accepted packet length average = 1
Total in-flight flits = 4 (4 measured)
latency change    = 0.0191765
throughput change = 0.0633947
Class 0:
Packet latency average = 18.915
	minimum = 7
	maximum = 46
Network latency average = 18.915
	minimum = 7
	maximum = 46
Slowest packet = 30311
Flit latency average = 19.06
	minimum = 7
	maximum = 46
Slowest flit = 30311
Fragmentation average = 0
	minimum = 0
	maximum = 0
Injected packet rate average = 0.01035
	minimum = 0.0068 (at node 3)
	maximum = 0.0136 (at node 9)
Accepted packet rate average = 0.010425
	minimum = 0.0068 (at node 12)
	maximum = 0.0136 (at node 6)
Injected flit rate average = 0.01035
	minimum = 0.0068 (at node 3)
	maximum = 0.0136 (at node 9)
Accepted flit rate average= 0.010425
	minimum = 0.0068 (at node 12)
	maximum = 0.0136 (at node 6)
Injected packet length average = 1
Accepted packet length average = 1
Total in-flight flits = 2 (2 measured)
latency change    = 0.00423777
throughput change = 0.0227818
Class 0:
Packet latency average = 19.0761
	minimum = 7
	maximum = 46
Network latency average = 19.0761
	minimum = 7
	maximum = 46
Slowest packet = 30311
Flit latency average = 19.2008
	minimum = 7
	maximum = 46
Slowest flit = 30311
Fragmentation average = 0
	minimum = 0
	maximum = 0
Injected packet rate average = 0.01
	minimum = 0.00666667 (at node 12)
	maximum = 0.012 (at node 5)
Accepted packet rate average = 0.00995833
	minimum = 0.00666667 (at node 12)
	maximum = 0.012 (at node 5)
Injected flit rate average = 0.01
	minimum = 0.00666667 (at node 12)
	maximum = 0.012 (at node 5)
Accepted flit rate average= 0.00995833
	minimum = 0.00666667 (at node 12)
	maximum = 0.012 (at node 5)
Injected packet length average = 1
Accepted packet length average = 1
Total in-flight flits = 7 (7 measured)
latency change    = 0.00844309
throughput change = 0.0468619
Class 0:
Packet latency average = 19.3839
	minimum = 7
	maximum = 46
Network latency average = 19.3839
	minimum = 7
	maximum = 46
Slowest packet = 30311
Flit latency average = 19.4867
	minimum = 7
	maximum = 46
Slowest flit = 30311
Fragmentation average = 0
	minimum = 0
	maximum = 0
Injected packet rate average = 0.0100357
	minimum = 0.00742857 (at node 3)
	maximum = 0.0131429 (at node 11)
Accepted packet rate average = 0.0100893
	minimum = 0.00742857 (at node 12)
	maximum = 0.0128571 (at node 14)
Injected flit rate average = 0.0100357
	minimum = 0.00742857 (at node 3)
	maximum = 0.0131429 (at node 11)
Accepted flit rate average= 0.0100893
	minimum = 0.00742857 (at node 12)
	maximum = 0.0128571 (at node 14)
Injected packet length average = 1
Accepted packet length average = 1
Total in-flight flits = 2 (2 measured)
latency change    = 0.0158801
throughput change = 0.0129794
Draining all recorded packets ...
Draining remaining packets ...
Time taken is 5035 cycles
Class 0:
Packet latency average = 19.2143
	minimum = 7
	maximum = 42
Network latency average = 19.2143
	minimum = 7
	maximum = 42
Slowest packet = 30845
Flit latency average = 19.2143
	minimum = 7
	maximum = 42
Slowest flit = 30845
Fragmentation average = 0
	minimum = 0
	maximum = 0
Injected packet rate average = 0.009
	minimum = 0.002 (at node 3)
	maximum = 0.018 (at node 5)
Accepted packet rate average = 0.00875
	minimum = 0.002 (at node 12)
	maximum = 0.018 (at node 5)
Injected flit rate average = 0.009
	minimum = 0.002 (at node 3)
	maximum = 0.018 (at node 5)
Accepted flit rate average= 0.00875
	minimum = 0.002 (at node 12)
	maximum = 0.018 (at node 5)
Injected packet length average = 1
Accepted packet length average = 1
Total in-flight flits = 2 (0 measured)
latency change    = 1
throughput change = 1
Class 0:
Packet latency average = 19.8085
	minimum = 7
	maximum = 42
Network latency average = 19.8085
	minimum = 7
	maximum = 42
Slowest packet = 30845
Flit latency average = 19.8085
	minimum = 7
	maximum = 42
Slowest flit = 30845
Fragmentation average = 0
	minimum = 0
	maximum = 0
Injected packet rate average = 0.009125
	minimum = 0.003 (at node 3)
	maximum = 0.019 (at node 13)
Accepted packet rate average = 0.0088125
	minimum = 0.003 (at node 12)
	maximum = 0.019 (at node 7)
Injected flit rate average = 0.009125
	minimum = 0.003 (at node 3)
	maximum = 0.019 (at node 13)
Accepted flit rate average= 0.0088125
	minimum = 0.003 (at node 12)
	maximum = 0.019 (at node 7)
Injected packet length average = 1
Accepted packet length average = 1
Total in-flight flits = 5 (0 measured)
latency change    = 0.0299985
throughput change = 0.0070922
Class 0:
Packet latency average = 20.1786
	minimum = 7
	maximum = 38
Network latency average = 20.1786
	minimum = 7
	maximum = 38
Slowest packet = 31046
Flit latency average = 20.1786
	minimum = 7
	maximum = 38
Slowest flit = 31046
Fragmentation average = 0
	minimum = 0
	maximum = 0
Injected packet rate average = 0.009875
	minimum = 0.004 (at node 12)
	maximum = 0.018 (at node 3)
Accepted packet rate average = 0.0105
	minimum = 0.006 (at node 3)
	maximum = 0.018 (at node 10)
Injected flit rate average = 0.009875
	minimum = 0.004 (at node 12)
	maximum = 0.018 (at node 3)
Accepted flit rate average= 0.0105
	minimum = 0.006 (at node 3)
	maximum = 0.018 (at node 10)
Injected packet length average = 1
Accepted packet length average = 1
Total in-flight flits = 0 (0 measured)
latency change    = 0.0183393
throughput change = 0.160714
Warmed up ...Time used is 1500 cycles
Class 0:
Packet latency average = 20.0988
	minimum = 7
	maximum = 37
Network latency average = 20.0988
	minimum = 7
	maximum = 37
Slowest packet = 31070
Flit latency average = 20.0988
	minimum = 7
	maximum = 37
Slowest flit = 31070
Fragmentation average = 0
	minimum = 0
	maximum = 0
Injected packet rate average = 0.01075
	minimum = 0.006 (at node 9)
	maximum = 0.02 (at node 1)
Accepted packet rate average = 0.010125
	minimum = 0.004 (at node 6)
	maximum = 0.018 (at node 4)
Injected flit rate average = 0.01075
	minimum = 0.006 (at node 9)
	maximum = 0.02 (at node 1)
Accepted flit rate average= 0.010125
	minimum = 0.004 (at node 6)
	maximum = 0.018 (at node 4)
Injected packet length average = 1
Accepted packet length average = 1
Total in-flight flits = 5 (5 measured)
latency change    = 0.00397069
throughput change = 0.037037
Class 0:
Packet latency average = 19.5906
	minimum = 7
	maximum = 37
Network latency average = 19.5906
	minimum = 7
	maximum = 37
Slowest packet = 31070
Flit latency average = 19.5906
	minimum = 7
	maximum = 37
Slowest flit = 31070
Fragmentation average = 0
	minimum = 0
	maximum = 0
Injected packet rate average = 0.0109375
	minimum = 0.007 (at node 7)
	maximum = 0.017 (at node 1)
Accepted packet rate average = 0.0106875
	minimum = 0.007 (at node 13)
	maximum = 0.017 (at node 4)
Injected flit rate average = 0.0109375
	minimum = 0.007 (at node 7)
	maximum = 0.017 (at node 1)
Accepted flit rate average= 0.0106875
	minimum = 0.007 (at node 13)
	maximum = 0.017 (at node 4)
Injected packet length average = 1
Accepted packet length average = 1
Total in-flight flits = 4 (4 measured)
latency change    = 0.025937
throughput change = 0.0526316
Class 0:
Packet latency average = 19.7631
	minimum = 7
	maximum = 52
Network latency average = 19.7631
	minimum = 7
	maximum = 52
Slowest packet = 31245
Flit latency average = 19.7631
	minimum = 7
	maximum = 52
Slowest flit = 31245
Fragmentation average = 0
	minimum = 0
	maximum = 0
Injected packet rate average = 0.0105
	minimum = 0.00733333 (at node 11)
	maximum = 0.0166667 (at node 1)
Accepted packet rate average = 0.010375
	minimum = 0.00733333 (at node 3)
	maximum = 0.0166667 (at node 4)
Injected flit rate average = 0.0105
	minimum = 0.00733333 (at node 11)
	maximum = 0.0166667 (at node 1)
Accepted flit rate average= 0.010375
	minimum = 0.00733333 (at node 3)
	maximum = 0.0166667 (at node 4)
Injected packet length average = 1
Accepted packet length average = 1
Total in-flight flits = 3 (3 measured)
latency change    = 0.0087238
throughput change = 0.0301205
Class 0:
Packet latency average = 19.8644
	minimum = 7
	maximum = 52
Network latency average = 19.8644
	minimum = 7
	maximum = 52
Slowest packet = 31245
Flit latency average = 19.8644
	minimum = 7
	maximum = 52
Slowest flit = 31245
Fragmentation average = 0
	minimum = 0
	maximum = 0
Injected packet rate average = 0.0099375
	minimum = 0.007 (at node 11)
	maximum = 0.0145 (at node 1)
Accepted packet rate average = 0.00990625
	minimum = 0.007 (at node 14)
	maximum = 0.0145 (at node 4)
Injected flit rate average = 0.0099375
	minimum = 0.007 (at node 11)
	maximum = 0.0145 (at node 1)
Accepted flit rate average= 0.00990625
	minimum = 0.007 (at node 14)
	maximum = 0.0145 (at node 4)
Injected packet length average = 1
Accepted packet length average = 1
Total in-flight flits = 1 (1 measured)
latency change    = 0.00509964
throughput change = 0.0473186
Class 0:
Packet latency average = 19.5942
	minimum = 7
	maximum = 52
Network latency average = 19.5942
	minimum = 7
	maximum = 52
Slowest packet = 31245
Flit latency average = 19.5942
	minimum = 7
	maximum = 52
Slowest flit = 31245
Fragmentation average = 0
	minimum = 0
	maximum = 0
Injected packet rate average = 0.0105
	minimum = 0.0076 (at node 13)
	maximum = 0.0148 (at node 1)
Accepted packet rate average = 0.01035
	minimum = 0.0072 (at node 7)
	maximum = 0.0148 (at node 4)
Injected flit rate average = 0.0105
	minimum = 0.0076 (at node 13)
	maximum = 0.0148 (at node 1)
Accepted flit rate average= 0.01035
	minimum = 0.0072 (at node 7)
	maximum = 0.0148 (at node 4)
Injected packet length average = 1
Accepted packet length average = 1
Total in-flight flits = 6 (6 measured)
latency change    = 0.0137873
throughput change = 0.0428744
Draining all recorded packets ...
Draining remaining packets ...
Time taken is 4034 cycles
Class 0:
Packet latency average = 19.6471
	minimum = 7
	maximum = 37
Network latency average = 19.6471
	minimum = 7
	maximum = 37
Slowest packet = 31491
Flit latency average = 19.6471
	minimum = 7
	maximum = 37
Slowest flit = 31491
Fragmentation average = 0
	minimum = 0
	maximum = 0
Injected packet rate average = 0.009125
	minimum = 0.002 (at node 2)
	maximum = 0.016 (at node 9)
Accepted packet rate average = 0.0085
	minimum = 0.002 (at node 8)
	maximum = 0.016 (at node 6)
Injected flit rate average = 0.009125
	minimum = 0.002 (at node 2)
	maximum = 0.016 (at node 9)
Accepted flit rate average= 0.0085
	minimum = 0.002 (at node 8)
	maximum = 0.016 (at node 6)
Injected packet length average = 1
Accepted packet length average = 1
Total in-flight flits = 5 (0 measured)
latency change    = 1
throughput change = 1
Class 0:
Packet latency average = 20.3709
	minimum = 7
	maximum = 46
Network latency average = 20.3709
	minimum = 7
	maximum = 46
Slowest packet = 31571
Flit latency average = 20.3709
	minimum = 7
	maximum = 46
Slowest flit = 31571
Fragmentation average = 0
	minimum = 0
	maximum = 0
Injected packet rate average = 0.0095625
	minimum = 0.006 (at node 5)
	maximum = 0.013 (at node 6)
Accepted packet rate average = 0.0094375
	minimum = 0.006 (at node 5)
	maximum = 0.013 (at node 14)
Injected flit rate average = 0.0095625
	minimum = 0.006 (at node 5)
	maximum = 0.013 (at node 6)
Accepted flit rate average= 0.0094375
	minimum = 0.006 (at node 5)
	maximum = 0.013 (at node 14)
Injected packet length average = 1
Accepted packet length average = 1
Total in-flight flits = 2 (0 measured)
latency change    = 0.0355312
throughput change = 0.0993377
Class 0:
Packet latency average = 18.383
	minimum = 7
	maximum = 39
Network latency average = 18.383
	minimum = 7
	maximum = 39
Slowest packet = 31648
Flit latency average = 18.383
	minimum = 7
	maximum = 39
Slowest flit = 31648
Fragmentation average = 0
	minimum = 0
	maximum = 0
Injected packet rate average = 0.011875
	minimum = 0.002 (at node 8)
	maximum = 0.022 (at node 15)
Accepted packet rate average = 0.01175
	minimum = 0.002 (at node 2)
	maximum = 0.022 (at node 15)
Injected flit rate average = 0.011875
	minimum = 0.002 (at node 8)
	maximum = 0.022 (at node 15)
Accepted flit rate average= 0.01175
	minimum = 0.002 (at node 2)
	maximum = 0.022 (at node 15)
Injected packet length average = 1
Accepted packet length average = 1
Total in-flight flits = 3 (0 measured)
latency change    = 0.108137
throughput change = 0.196809
Warmed up ...Time used is 1500 cycles
Class 0:
Packet latency average = 21.7377
	minimum = 7
	maximum = 43
Network latency average = 21.7377
	minimum = 7
	maximum = 43
Slowest packet = 31738
Flit latency average = 22.2969
	minimum = 7
	maximum = 43
Slowest flit = 31738
Fragmentation average = 0
	minimum = 0
	maximum = 0
Injected packet rate average = 0.007625
	minimum = 0 (at node 10)
	maximum = 0.016 (at node 3)
Accepted packet rate average = 0.008
	minimum = 0 (at node 10)
	maximum = 0.016 (at node 12)
Injected flit rate average = 0.007625
	minimum = 0 (at node 10)
	maximum = 0.016 (at node 3)
Accepted flit rate average= 0.008
	minimum = 0 (at node 10)
	maximum = 0.016 (at node 12)
Injected packet length average = 1
Accepted packet length average = 1
Total in-flight flits = 0 (0 measured)
latency change    = 0.154328
throughput change = 0.46875
Class 0:
Packet latency average = 20.6
	minimum = 7
	maximum = 43
Network latency average = 20.6
	minimum = 7
	maximum = 43
Slowest packet = 31738
Flit latency average = 20.8841
	minimum = 7
	maximum = 43
Slowest flit = 31738
Fragmentation average = 0
	minimum = 0
	maximum = 0
Injected packet rate average = 0.008625
	minimum = 0.004 (at node 10)
	maximum = 0.015 (at node 1)
Accepted packet rate average = 0.008625
	minimum = 0.004 (at node 10)
	maximum = 0.014 (at node 4)
Injected flit rate average = 0.008625
	minimum = 0.004 (at node 10)
	maximum = 0.015 (at node 1)
Accepted flit rate average= 0.008625
	minimum = 0.004 (at node 10)
	maximum = 0.014 (at node 4)
Injected packet length average = 1
Accepted packet length average = 1
Total in-flight flits = 3 (3 measured)
latency change    = 0.0552284
throughput change = 0.0724638
Class 0:
Packet latency average = 20.5352
	minimum = 7
	maximum = 43
Network latency average = 20.5352
	minimum = 7
	maximum = 43
Slowest packet = 31738
Flit latency average = 20.7176
	minimum = 7
	maximum = 43
Slowest flit = 31738
Fragmentation average = 0
	minimum = 0
	maximum = 0
Injected packet rate average = 0.009125
	minimum = 0.00533333 (at node 12)
	maximum = 0.0133333 (at node 3)
Accepted packet rate average = 0.009
	minimum = 0.00533333 (at node 3)
	maximum = 0.0133333 (at node 12)
Injected flit rate average = 0.009125
	minimum = 0.00533333 (at node 12)
	maximum = 0.0133333 (at node 3)
Accepted flit rate average= 0.009
	minimum = 0.00533333 (at node 3)
	maximum = 0.0133333 (at node 12)
Injected packet length average = 1
Accepted packet length average = 1
Total in-flight flits = 6 (6 measured)
latency change    = 0.00315501
throughput change = 0.0416667
Class 0:
Packet latency average = 21.0925
	minimum = 7
	maximum = 43
Network latency average = 21.0925
	minimum = 7
	maximum = 43
Slowest packet = 31738
Flit latency average = 21.2203
	minimum = 7
	maximum = 43
Slowest flit = 31738
Fragmentation average = 0
	minimum = 0
	maximum = 0
Injected packet rate average = 0.009125
	minimum = 0.005 (at node 12)
	maximum = 0.0135 (at node 3)
Accepted packet rate average = 0.00921875
	minimum = 0.0055 (at node 3)
	maximum = 0.0135 (at node 12)
Injected flit rate average = 0.009125
	minimum = 0.005 (at node 12)
	maximum = 0.0135 (at node 3)
Accepted flit rate average= 0.00921875
	minimum = 0.0055 (at node 3)
	maximum = 0.0135 (at node 12)
Injected packet length average = 1
Accepted packet length average = 1
Total in-flight flits = 0 (0 measured)
latency change    = 0.0264196
throughput change = 0.0237288
Class 0:
Packet latency average = 21.038
	minimum = 7
	maximum = 44
Network latency average = 21.038
	minimum = 7
	maximum = 44
Slowest packet = 32061
Flit latency average = 21.1402
	minimum = 7
	maximum = 44
Slowest flit = 32061
Fragmentation average = 0
	minimum = 0
	maximum = 0
Injected packet rate average = 0.0093
	minimum = 0.006 (at node 14)
	maximum = 0.0128 (at node 3)
Accepted packet rate average = 0.009275
	minimum = 0.006 (at node 11)
	maximum = 0.012 (at node 12)
Injected flit rate average = 0.0093
	minimum = 0.006 (at node 14)
	maximum = 0.0128 (at node 3)
Accepted flit rate average= 0.009275
	minimum = 0.006 (at node 11)
	maximum = 0.012 (at node 12)
Injected packet length average = 1
Accepted packet length average = 1
Total in-flight flits = 4 (4 measured)
latency change    = 0.00258685
throughput change = 0.00606469
Draining all recorded packets ...
Draining remaining packets ...
Time taken is 4045 cycles
====== Overall Traffic Statistics ======
====== Traffic class 0 ======
Packet latency average = 20.2189 (50 samples)
	minimum = 7 (50 samples)
	maximum = 45.04 (50 samples)
Network latency average = 20.2189 (50 samples)
	minimum = 7 (50 samples)
	maximum = 45.04 (50 samples)
Flit latency average = 20.258 (50 samples)
	minimum = 7 (50 samples)
	maximum = 45.04 (50 samples)
Fragmentation average = 0 (50 samples)
	minimum = 0 (50 samples)
	maximum = 0 (50 samples)
Injected packet rate average = 0.0100198 (50 samples)
	minimum = 0.00659038 (50 samples)
	maximum = 0.0136255 (50 samples)
Accepted packet rate average = 0.0100218 (50 samples)
	minimum = 0.00660105 (50 samples)
	maximum = 0.0135242 (50 samples)
Injected flit rate average = 0.0100198 (50 samples)
	minimum = 0.00659038 (50 samples)
	maximum = 0.0136255 (50 samples)
Accepted flit rate average = 0.0100218 (50 samples)
	minimum = 0.00660105 (50 samples)
	maximum = 0.0135242 (50 samples)
Injected packet size average = 1 (50 samples)
Accepted packet size average = 1 (50 samples)
Hops average = 3.62344 (50 samples)
Total run time 1.06839
