BEGIN Configuration File: /tmp/tmpd9j_or4s.cfg
topology = mesh;
k = 4;
n = 2;
routing_function = planar_adapt;
num_vcs = 4;
vc_buf_size = 4;
wait_for_tail_credit = 1;
vc_allocator = islip;
sw_allocator = islip;
alloc_iters = 1;
credit_delay = 2;
routing_delay = 1;
vc_alloc_delay = 1;
sw_alloc_delay = 1;
input_speedup = 2;
output_speedup = 1;
internal_speedup = 1.0;
traffic = uniform;
packet_size = 1;
sim_type = latency;
injection_rate = 0.01;
warmup_periods = 3;
sample_period = 500;
sim_count = 50;
seed = 0;
link_failures = 2;
fail_seed = 101;

END Configuration File: /tmp/tmpd9j_or4s.cfg
failure at node 14, channel 0 (1/2)
failure at node 12, channel 0 (2/2)
Class 0:
Packet latency average = 20.4375
	minimum = 7
	maximum = 37
Network latency average = 20.4375
	minimum = 7
	maximum = 37
Slowest packet = 23
Flit latency average = 20.4375
	minimum = 7
	maximum = 37
Slowest flit = 23
Fragmentation average = 0
	minimum = 0
	maximum = 0
Injected packet rate average = 0.010375
	minimum = 0.004 (at node 5)
	maximum = 0.016 (at node 9)
Accepted packet rate average = 0.01
	minimum = 0.004 (at node 12)
	maximum = 0.02 (at node 2)
Injected flit rate average = 0.010375
	minimum = 0.004 (at node 5)
	maximum = 0.016 (at node 9)
Accepted flit rate average= 0.01
	minimum = 0.004 (at node 12)
	maximum = 0.02 (at node 2)
Injected packet length average = 1
Accepted packet length average = 1
Total in-flight flits = 3 (0 measured)
latency change    = 1
throughput change = 1
Class 0:
Packet latency average = 19.5714
	minimum = 7
	maximum = 37
Network latency average = 19.5714
	minimum = 7
	maximum = 37
Slowest packet = 23
Flit latency average = 19.5714
	minimum = 7
	maximum = 37
Slowest flit = 23
Fragmentation average = 0
	minimum = 0
	maximum = 0
Injected packet rate average = 0.00975
	minimum = 0.004 (at node 11)
	maximum = 0.014 (at node 13)
Accepted packet rate average = 0.009625
	minimum = 0.004 (at node 11)
	maximum = 0.016 (at node 9)
Injected flit rate average = 0.00975
	minimum = 0.004 (at node 11)
	maximum = 0.014 (at node 13)
Accepted flit rate average= 0.009625
	minimum = 0.004 (at node 11)
	maximum = 0.016 (at node 9)
Injected packet length average = 1
Accepted packet length average = 1
Total in-flight flits = 2 (0 measured)
latency change    = 0.0442518
throughput change = 0.038961
Class 0:
Packet latency average = 20.5714
	minimum = 7
	maximum = 37
Network latency average = 20.5714
	minimum = 7
	maximum = 37
Slowest packet = 213
Flit latency average = 20.5714
	minimum = 7
	maximum = 37
Slowest flit = 213
Fragmentation average = 0
	minimum = 0
	maximum = 0
Injected packet rate average = 0.00925
	minimum = 0.002 (at node 11)
	maximum = 0.016 (at node 10)
Accepted packet rate average = 0.00875
	minimum = 0.004 (at node 9)
	maximum = 0.016 (at node 8)
Injected flit rate average = 0.00925
	minimum = 0.002 (at node 11)
	maximum = 0.016 (at node 10)
Accepted flit rate average= 0.00875
	minimum = 0.004 (at node 9)
	maximum = 0.016 (at node 8)
Injected packet length average = 1
Accepted packet length average = 1
Total in-flight flits = 6 (0 measured)
latency change    = 0.0486111
throughput change = 0.1
Warmed up ...Time used is 1500 cycles
Class 0:
Packet latency average = 18.0933
	minimum = 7
	maximum = 37
Network latency average = 18.0933
	minimum = 7
	maximum = 37
Slowest packet = 262
Flit latency average = 18.5679
	minimum = 7
	maximum = 37
Slowest flit = 262
Fragmentation average = 0
	minimum = 0
	maximum = 0
Injected packet rate average = 0.00975
	minimum = 0.004 (at node 3)
	maximum = 0.018 (at node 8)
Accepted packet rate average = 0.010125
	minimum = 0.004 (at node 11)
	maximum = 0.016 (at node 1)
Injected flit rate average = 0.00975
	minimum = 0.004 (at node 3)
	maximum = 0.018 (at node 8)
Accepted flit rate average= 0.010125
	minimum = 0.004 (at node 11)
	maximum = 0.016 (at node 1)
Injected packet length average = 1
Accepted packet length average = 1
Total in-flight flits = 3 (3 measured)
latency change    = 0.136962
throughput change = 0.135802
Class 0:
Packet latency average = 19.4481
	minimum = 7
	maximum = 37
Network latency average = 19.4481
	minimum = 7
	maximum = 37
Slowest packet = 262
Flit latency average = 19.6375
	minimum = 7
	maximum = 37
Slowest flit = 262
Fragmentation average = 0
	minimum = 0
	maximum = 0
Injected packet rate average = 0.0096875
	minimum = 0.005 (at node 7)
	maximum = 0.016 (at node 13)
Accepted packet rate average = 0.01
	minimum = 0.005 (at node 9)
	maximum = 0.015 (at node 15)
Injected flit rate average = 0.0096875
	minimum = 0.005 (at node 7)
	maximum = 0.016 (at node 13)
Accepted flit rate average= 0.01
	minimum = 0.005 (at node 9)
	maximum = 0.015 (at node 15)
Injected packet length average = 1
Accepted packet length average = 1
Total in-flight flits = 1 (1 measured)
latency change    = 0.0696583
throughput change = 0.0125
Class 0:
Packet latency average = 19.7637
	minimum = 7
	maximum = 37
Network latency average = 19.7637
	minimum = 7
	maximum = 37
Slowest packet = 262
Flit latency average = 19.8807
	minimum = 7
	maximum = 37
Slowest flit = 262
Fragmentation average = 0
	minimum = 0
	maximum = 0
Injected packet rate average = 0.00991667
	minimum = 0.00733333 (at node 7)
	maximum = 0.0133333 (at node 13)
Accepted packet rate average = 0.010125
	minimum = 0.00733333 (at node 9)
	maximum = 0.0133333 (at node 4)
Injected flit rate average = 0.00991667
	minimum = 0.00733333 (at node 7)
	maximum = 0.0133333 (at node 13)
Accepted flit rate average= 0.010125
	minimum = 0.00733333 (at node 9)
	maximum = 0.0133333 (at node 4)
Injected packet length average = 1
Accepted packet length average = 1
Total in-flight flits = 1 (1 measured)
latency change    = 0.0159718
throughput change = 0.0123457
Class 0:
Packet latency average = 19.7866
	minimum = 7
	maximum = 37
Network latency average = 19.7866
	minimum = 7
	maximum = 37
Slowest packet = 262
Flit latency average = 19.875
	minimum = 7
	maximum = 37
Slowest flit = 262
Fragmentation average = 0
	minimum = 0
	maximum = 0
Injected packet rate average = 0.00990625
	minimum = 0.0075 (at node 1)
	maximum = 0.013 (at node 8)
Accepted packet rate average = 0.01
	minimum = 0.007 (at node 10)
	maximum = 0.014 (at node 4)
Injected flit rate average = 0.00990625
	minimum = 0.0075 (at node 1)
	maximum = 0.013 (at node 8)
Accepted flit rate average= 0.01
	minimum = 0.007 (at node 10)
	maximum = 0.014 (at node 4)
Injected packet length average = 1
Accepted packet length average = 1
Total in-flight flits = 3 (3 measured)
latency change    = 0.00115791
throughput change = 0.0125
Class 0:
Packet latency average = 20.0472
	minimum = 7
	maximum = 37
Network latency average = 20.0472
	minimum = 7
	maximum = 37
Slowest packet = 262
Flit latency average = 20.1163
	minimum = 7
	maximum = 37
Slowest flit = 262
Fragmentation average = 0
	minimum = 0
	maximum = 0
Injected packet rate average = 0.009625
	minimum = 0.0072 (at node 1)
	maximum = 0.0124 (at node 11)
Accepted packet rate average = 0.009675
	minimum = 0.0068 (at node 9)
	maximum = 0.0128 (at node 1)
Injected flit rate average = 0.009625
	minimum = 0.0072 (at node 1)
	maximum = 0.0124 (at node 11)
Accepted flit rate average= 0.009675
	minimum = 0.0068 (at node 9)
	maximum = 0.0128 (at node 1)
Injected packet length average = 1
Accepted packet length average = 1
Total in-flight flits = 4 (4 measured)
latency change    = 0.0130003
throughput change = 0.0335917
Draining all recorded packets ...
Draining remaining packets ...
Time taken is 4040 cycles
Class 0:
Packet latency average = 19.6757
	minimum = 7
	maximum = 37
Network latency average = 19.6757
	minimum = 7
	maximum = 37
Slowest packet = 656
Flit latency average = 19.6757
	minimum = 7
	maximum = 37
Slowest flit = 656
Fragmentation average = 0
	minimum = 0
	maximum = 0
Injected packet rate average = 0.009625
	minimum = 0.004 (at node 4)
	maximum = 0.018 (at node 10)
Accepted packet rate average = 0.00925
	minimum = 0.002 (at node 11)
	maximum = 0.016 (at node 8)
Injected flit rate average = 0.009625
	minimum = 0.004 (at node 4)
	maximum = 0.018 (at node 10)
Accepted flit rate average= 0.00925
	minimum = 0.002 (at node 11)
	maximum = 0.016 (at node 8)
Injected packet length average = 1
Accepted packet length average = 1
Total in-flight flits = 3 (0 measured)
latency change    = 1
throughput change = 1
Class 0:
Packet latency average = 19.1678
	minimum = 7
	maximum = 37
Network latency average = 19.1678
	minimum = 7
	maximum = 37
Slowest packet = 656
Flit latency average = 19.1678
	minimum = 7
	maximum = 37
Slowest flit = 656
Fragmentation average = 0
	minimum = 0
	maximum = 0
Injected packet rate average = 0.0091875
	minimum = 0.005 (at node 4)
	maximum = 0.013 (at node 1)
Accepted packet rate average = 0.0089375
	minimum = 0.005 (at node 0)
	maximum = 0.016 (at node 8)
Injected flit rate average = 0.0091875
	minimum = 0.005 (at node 4)
	maximum = 0.013 (at node 1)
Accepted flit rate average= 0.0089375
	minimum = 0.005 (at node 0)
	maximum = 0.016 (at node 8)
Injected packet length average = 1
Accepted packet length average = 1
Total in-flight flits = 4 (0 measured)
latency change    = 0.0264946
throughput change = 0.034965
Class 0:
Packet latency average = 19.5714
	minimum = 7
	maximum = 32
Network latency average = 19.5714
	minimum = 7
	maximum = 32
Slowest packet = 793
Flit latency average = 19.5714
	minimum = 7
	maximum = 32
Slowest flit = 793
Fragmentation average = 0
	minimum = 0
	maximum = 0
Injected packet rate average = 0.010625
	minimum = 0.002 (at node 2)
	maximum = 0.02 (at node 15)
Accepted packet rate average = 0.0105
	minimum = 0.004 (at node 1)
	maximum = 0.016 (at node 2)
Injected flit rate average = 0.010625
	minimum = 0.002 (at node 2)
	maximum = 0.02 (at node 15)
Accepted flit rate average= 0.0105
	minimum = 0.004 (at node 1)
	maximum = 0.016 (at node 2)
Injected packet length average = 1
Accepted packet length average = 1
Total in-flight flits = 5 (0 measured)
latency change    = 0.0206217
throughput change = 0.14881
Warmed up ...Time used is 1500 cycles
Class 0:
Packet latency average = 18.5571
	minimum = 7
	maximum = 35
Network latency average = 18.5571
	minimum = 7
	maximum = 35
Slowest packet = 895
Flit latency average = 18.6533
	minimum = 7
	maximum = 35
Slowest flit = 895
Fragmentation average = 0
	minimum = 0
	maximum = 0
Injected packet rate average = 0.009375
	minimum = 0.002 (at node 6)
	maximum = 0.018 (at node 13)
Accepted packet rate average = 0.009375
	minimum = 0.002 (at node 10)
	maximum = 0.024 (at node 7)
Injected flit rate average = 0.009375
	minimum = 0.002 (at node 6)
	maximum = 0.018 (at node 13)
Accepted flit rate average= 0.009375
	minimum = 0.002 (at node 10)
	maximum = 0.024 (at node 7)
Injected packet length average = 1
Accepted packet length average = 1
Total in-flight flits = 5 (5 measured)
latency change    = 0.0546574
throughput change = 0.12
Class 0:
Packet latency average = 19.3595
	minimum = 7
	maximum = 37
Network latency average = 19.3595
	minimum = 7
	maximum = 37
Slowest packet = 918
Flit latency average = 19.3797
	minimum = 7
	maximum = 37
Slowest flit = 918
Fragmentation average = 0
	minimum = 0
	maximum = 0
Injected packet rate average = 0.0100625
	minimum = 0.002 (at node 10)
	maximum = 0.017 (at node 3)
Accepted packet rate average = 0.009875
	minimum = 0.005 (at node 0)
	maximum = 0.018 (at node 7)
Injected flit rate average = 0.0100625
	minimum = 0.002 (at node 10)
	maximum = 0.017 (at node 3)
Accepted flit rate average= 0.009875
	minimum = 0.005 (at node 0)
	maximum = 0.018 (at node 7)
Injected packet length average = 1
Accepted packet length average = 1
Total in-flight flits = 8 (8 measured)
latency change    = 0.041444
throughput change = 0.0506329
Class 0:
Packet latency average = 19.9522
	minimum = 7
	maximum = 37
Network latency average = 19.9522
	minimum = 7
	maximum = 37
Slowest packet = 918
Flit latency average = 19.9532
	minimum = 7
	maximum = 37
Slowest flit = 918
Fragmentation average = 0
	minimum = 0
	maximum = 0
Injected packet rate average = 0.00979167
	minimum = 0.00533333 (at node 10)
	maximum = 0.0186667 (at node 13)
Accepted packet rate average = 0.00979167
	minimum = 0.00533333 (at node 0)
	maximum = 0.016 (at node 7)
Injected flit rate average = 0.00979167
	minimum = 0.00533333 (at node 10)
	maximum = 0.0186667 (at node 13)
Accepted flit rate average= 0.00979167
	minimum = 0.00533333 (at node 0)
	maximum = 0.016 (at node 7)
Injected packet length average = 1
Accepted packet length average = 1
Total in-flight flits = 5 (5 measured)
latency change    = 0.0297059
throughput change = 0.00851064
Class 0:
Packet latency average = 20.0193
	minimum = 7
	maximum = 37
Network latency average = 20.0193
	minimum = 7
	maximum = 37
Slowest packet = 918
Flit latency average = 20.019
	minimum = 7
	maximum = 37
Slowest flit = 918
Fragmentation average = 0
	minimum = 0
	maximum = 0
Injected packet rate average = 0.0098125
	minimum = 0.0065 (at node 0)
	maximum = 0.0175 (at node 13)
Accepted packet rate average = 0.009875
	minimum = 0.0065 (at node 13)
	maximum = 0.015 (at node 7)
Injected flit rate average = 0.0098125
	minimum = 0.0065 (at node 0)
	maximum = 0.0175 (at node 13)
Accepted flit rate average= 0.009875
	minimum = 0.0065 (at node 13)
	maximum = 0.015 (at node 7)
Injected packet length average = 1
Accepted packet length average = 1
Total in-flight flits = 3 (3 measured)
latency change    = 0.0033527
throughput change = 0.00843882
Class 0:
Packet latency average = 20.1439
	minimum = 7
	maximum = 44
Network latency average = 20.1439
	minimum = 7
	maximum = 44
Slowest packet = 1240
Flit latency average = 20.1422
	minimum = 7
	maximum = 44
Slowest flit = 1240
Fragmentation average = 0
	minimum = 0
	maximum = 0
Injected packet rate average = 0.010175
	minimum = 0.0076 (at node 0)
	maximum = 0.0172 (at node 13)
Accepted packet rate average = 0.0102
	minimum = 0.0072 (at node 0)
	maximum = 0.014 (at node 7)
Injected flit rate average = 0.010175
	minimum = 0.0076 (at node 0)
	maximum = 0.0172 (at node 13)
Accepted flit rate average= 0.0102
	minimum = 0.0072 (at node 0)
	maximum = 0.014 (at node 7)
Injected packet length average = 1
Accepted packet length average = 1
Total in-flight flits = 4 (4 measured)
latency change    = 0.00618688
throughput change = 0.0318627
Draining all recorded packets ...
Draining remaining packets ...
Time taken is 4033 cycles
Class 0:
Packet latency average = 19.2581
	minimum = 7
	maximum = 37
Network latency average = 19.2581
	minimum = 7
	maximum = 37
Slowest packet = 1264
Flit latency average = 19.2581
	minimum = 7
	maximum = 37
Slowest flit = 1264
Fragmentation average = 0
	minimum = 0
	maximum = 0
Injected packet rate average = 0.012125
	minimum = 0.006 (at node 8)
	maximum = 0.018 (at node 9)
Accepted packet rate average = 0.011625
	minimum = 0.004 (at node 2)
	maximum = 0.016 (at node 1)
Injected flit rate average = 0.012125
	minimum = 0.006 (at node 8)
	maximum = 0.018 (at node 9)
Accepted flit rate average= 0.011625
	minimum = 0.004 (at node 2)
	maximum = 0.016 (at node 1)
Injected packet length average = 1
Accepted packet length average = 1
Total in-flight flits = 4 (0 measured)
latency change    = 1
throughput change = 1
Class 0:
Packet latency average = 18.9946
	minimum = 7
	maximum = 37
Network latency average = 18.9946
	minimum = 7
	maximum = 37
Slowest packet = 1264
Flit latency average = 18.9946
	minimum = 7
	maximum = 37
Slowest flit = 1264
Fragmentation average = 0
	minimum = 0
	maximum = 0
Injected packet rate average = 0.01175
	minimum = 0.009 (at node 8)
	maximum = 0.015 (at node 1)
Accepted packet rate average = 0.011625
	minimum = 0.005 (at node 3)
	maximum = 0.017 (at node 8)
Injected flit rate average = 0.01175
	minimum = 0.009 (at node 8)
	maximum = 0.015 (at node 1)
Accepted flit rate average= 0.011625
	minimum = 0.005 (at node 3)
	maximum = 0.017 (at node 8)
Injected packet length average = 1
Accepted packet length average = 1
Total in-flight flits = 2 (0 measured)
latency change    = 0.0138692
throughput change = 0
Class 0:
Packet latency average = 20.3553
	minimum = 7
	maximum = 37
Network latency average = 20.3553
	minimum = 7
	maximum = 37
Slowest packet = 1455
Flit latency average = 20.3553
	minimum = 7
	maximum = 37
Slowest flit = 1455
Fragmentation average = 0
	minimum = 0
	maximum = 0
Injected packet rate average = 0.009625
	minimum = 0.002 (at node 5)
	maximum = 0.02 (at node 7)
Accepted packet rate average = 0.0095
	minimum = 0.002 (at node 2)
	maximum = 0.018 (at node 1)
Injected flit rate average = 0.009625
	minimum = 0.002 (at node 5)
	maximum = 0.02 (at node 7)
Accepted flit rate average= 0.0095
	minimum = 0.002 (at node 2)
	maximum = 0.018 (at node 1)
Injected packet length average = 1
Accepted packet length average = 1
Total in-flight flits = 3 (0 measured)
latency change    = 0.0668446
throughput change = 0.223684
Warmed up ...Time used is 1500 cycles
Class 0:
Packet latency average = 19.6719
	minimum = 7
	maximum = 37
Network latency average = 19.6719
	minimum = 7
	maximum = 37
Slowest packet = 1543
Flit latency average = 19.9254
	minimum = 7
	maximum = 37
Slowest flit = 1543
Fragmentation average = 0
	minimum = 0
	maximum = 0
Injected packet rate average = 0.00825
	minimum = 0.004 (at node 0)
	maximum = 0.016 (at node 3)
Accepted packet rate average = 0.008375
	minimum = 0.004 (at node 7)
	maximum = 0.012 (at node 0)
Injected flit rate average = 0.00825
	minimum = 0.004 (at node 0)
	maximum = 0.016 (at node 3)
Accepted flit rate average= 0.008375
	minimum = 0.004 (at node 7)
	maximum = 0.012 (at node 0)
Injected packet length average = 1
Accepted packet length average = 1
Total in-flight flits = 2 (2 measured)
latency change    = 0.0347394
throughput change = 0.134328
Class 0:
Packet latency average = 20.0355
	minimum = 7
	maximum = 37
Network latency average = 20.0355
	minimum = 7
	maximum = 37
Slowest packet = 1543
Flit latency average = 20.1458
	minimum = 7
	maximum = 37
Slowest flit = 1543
Fragmentation average = 0
	minimum = 0
	maximum = 0
Injected packet rate average = 0.0089375
	minimum = 0.003 (at node 2)
	maximum = 0.012 (at node 1)
Accepted packet rate average = 0.009
	minimum = 0.004 (at node 7)
	maximum = 0.012 (at node 2)
Injected flit rate average = 0.0089375
	minimum = 0.003 (at node 2)
	maximum = 0.012 (at node 1)
Accepted flit rate average= 0.009
	minimum = 0.004 (at node 7)
	maximum = 0.012 (at node 2)
Injected packet length average = 1
Accepted packet length average = 1
Total in-flight flits = 2 (2 measured)
latency change    = 0.0181471
throughput change = 0.0694444
Class 0:
Packet latency average = 19.704
	minimum = 7
	maximum = 37
Network latency average = 19.704
	minimum = 7
	maximum = 37
Slowest packet = 1543
Flit latency average = 19.7788
	minimum = 7
	maximum = 37
Slowest flit = 1543
Fragmentation average = 0
	minimum = 0
	maximum = 0
Injected packet rate average = 0.00941667
	minimum = 0.00533333 (at node 2)
	maximum = 0.0133333 (at node 1)
Accepted packet rate average = 0.00941667
	minimum = 0.006 (at node 7)
	maximum = 0.0126667 (at node 3)
Injected flit rate average = 0.00941667
	minimum = 0.00533333 (at node 2)
	maximum = 0.0133333 (at node 1)
Accepted flit rate average= 0.00941667
	minimum = 0.006 (at node 7)
	maximum = 0.0126667 (at node 3)
Injected packet length average = 1
Accepted packet length average = 1
Total in-flight flits = 3 (3 measured)
latency change    = 0.0168202
throughput change = 0.0442478
Class 0:
Packet latency average = 19.9076
	minimum = 7
	maximum = 37
Network latency average = 19.9076
	minimum = 7
	maximum = 37
Slowest packet = 1543
Flit latency average = 19.959
	minimum = 7
	maximum = 37
Slowest flit = 1543
Fragmentation average = 0
	minimum = 0
	maximum = 0
Injected packet rate average = 0.0098125
	minimum = 0.0085 (at node 2)
	maximum = 0.0125 (at node 1)
Accepted packet rate average = 0.00990625
	minimum = 0.007 (at node 4)
	maximum = 0.012 (at node 0)
Injected flit rate average = 0.0098125
	minimum = 0.0085 (at node 2)
	maximum = 0.0125 (at node 1)
Accepted flit rate average= 0.00990625
	minimum = 0.007 (at node 4)
	maximum = 0.012 (at node 0)
Injected packet length average = 1
Accepted packet length average = 1
Total in-flight flits = 0 (0 measured)
latency change    = 0.0102276
throughput change = 0.0494217
Class 0:
Packet latency average = 19.9316
	minimum = 7
	maximum = 37
Network latency average = 19.9316
	minimum = 7
	maximum = 37
Slowest packet = 1543
Flit latency average = 19.9724
	minimum = 7
	maximum = 37
Slowest flit = 1543
Fragmentation average = 0
	minimum = 0
	maximum = 0
Injected packet rate average = 0.009925
	minimum = 0.008 (at node 6)
	maximum = 0.012 (at node 12)
Accepted packet rate average = 0.00995
	minimum = 0.0068 (at node 5)
	maximum = 0.0124 (at node 13)
Injected flit rate average = 0.009925
	minimum = 0.008 (at node 6)
	maximum = 0.012 (at node 12)
Accepted flit rate average= 0.00995
	minimum = 0.0068 (at node 5)
	maximum = 0.0124 (at node 13)
Injected packet length average = 1
Accepted packet length average = 1
Total in-flight flits = 2 (2 measured)
latency change    = 0.00120423
throughput change = 0.00439698
Draining all recorded packets ...
Draining remaining packets ...
Time taken is 4041 cycles
Class 0:
Packet latency average = 21.1059
	minimum = 7
	maximum = 41
Network latency average = 21.1059
	minimum = 7
	maximum = 41
Slowest packet = 1948
Flit latency average = 21.1059
	minimum = 7
	maximum = 41
Slowest flit = 1948
Fragmentation average = 0
	minimum = 0
	maximum = 0
Injected packet rate average = 0.011
	minimum = 0.002 (at node 10)
	maximum = 0.018 (at node 2)
Accepted packet rate average = 0.010625
	minimum = 0.006 (at node 8)
	maximum = 0.014 (at node 1)
Injected flit rate average = 0.011
	minimum = 0.002 (at node 10)
	maximum = 0.018 (at node 2)
Accepted flit rate average= 0.010625
	minimum = 0.006 (at node 8)
	maximum = 0.014 (at node 1)
Injected packet length average = 1
Accepted packet length average = 1
Total in-flight flits = 3 (0 measured)
latency change    = 1
throughput change = 1
Class 0:
Packet latency average = 20.0848
	minimum = 7
	maximum = 41
Network latency average = 20.0848
	minimum = 7
	maximum = 41
Slowest packet = 1948
Flit latency average = 20.0848
	minimum = 7
	maximum = 41
Slowest flit = 1948
Fragmentation average = 0
	minimum = 0
	maximum = 0
Injected packet rate average = 0.010375
	minimum = 0.006 (at node 10)
	maximum = 0.013 (at node 2)
Accepted packet rate average = 0.0103125
	minimum = 0.007 (at node 13)
	maximum = 0.013 (at node 3)
Injected flit rate average = 0.010375
	minimum = 0.006 (at node 10)
	maximum = 0.013 (at node 2)
Accepted flit rate average= 0.0103125
	minimum = 0.007 (at node 13)
	maximum = 0.013 (at node 3)
Injected packet length average = 1
Accepted packet length average = 1
Total in-flight flits = 1 (0 measured)
latency change    = 0.050836
throughput change = 0.030303
Class 0:
Packet latency average = 19.4828
	minimum = 7
	maximum = 37
Network latency average = 19.4828
	minimum = 7
	maximum = 37
Slowest packet = 2096
Flit latency average = 19.4828
	minimum = 7
	maximum = 37
Slowest flit = 2096
Fragmentation average = 0
	minimum = 0
	maximum = 0
Injected packet rate average = 0.011625
	minimum = 0.002 (at node 11)
	maximum = 0.02 (at node 12)
Accepted packet rate average = 0.010875
	minimum = 0.002 (at node 4)
	maximum = 0.018 (at node 7)
Injected flit rate average = 0.011625
	minimum = 0.002 (at node 11)
	maximum = 0.02 (at node 12)
Accepted flit rate average= 0.010875
	minimum = 0.002 (at node 4)
	maximum = 0.018 (at node 7)
Injected packet length average = 1
Accepted packet length average = 1
Total in-flight flits = 7 (0 measured)
latency change    = 0.0309037
throughput change = 0.0517241
Warmed up ...Time used is 1500 cycles
Class 0:
Packet latency average = 19.3077
	minimum = 7
	maximum = 32
Network latency average = 19.3077
	minimum = 7
	maximum = 32
Slowest packet = 2182
Flit latency average = 19.6389
	minimum = 7
	maximum = 37
Slowest flit = 2178
Fragmentation average = 0
	minimum = 0
	maximum = 0
Injected packet rate average = 0.0085
	minimum = 0.004 (at node 13)
	maximum = 0.012 (at node 7)
Accepted packet rate average = 0.009
	minimum = 0.004 (at node 8)
	maximum = 0.016 (at node 12)
Injected flit rate average = 0.0085
	minimum = 0.004 (at node 13)
	maximum = 0.012 (at node 7)
Accepted flit rate average= 0.009
	minimum = 0.004 (at node 8)
	maximum = 0.016 (at node 12)
Injected packet length average = 1
Accepted packet length average = 1
Total in-flight flits = 3 (3 measured)
latency change    = 0.00906718
throughput change = 0.208333
Class 0:
Packet latency average = 19.6573
	minimum = 7
	maximum = 37
Network latency average = 19.6573
	minimum = 7
	maximum = 37
Slowest packet = 2311
Flit latency average = 19.8
	minimum = 7
	maximum = 37
Slowest flit = 2178
Fragmentation average = 0
	minimum = 0
	maximum = 0
Injected packet rate average = 0.0090625
	minimum = 0.007 (at node 1)
	maximum = 0.012 (at node 9)
Accepted packet rate average = 0.009375
	minimum = 0.002 (at node 8)
	maximum = 0.014 (at node 12)
Injected flit rate average = 0.0090625
	minimum = 0.007 (at node 1)
	maximum = 0.012 (at node 9)
Accepted flit rate average= 0.009375
	minimum = 0.002 (at node 8)
	maximum = 0.014 (at node 12)
Injected packet length average = 1
Accepted packet length average = 1
Total in-flight flits = 2 (2 measured)
latency change    = 0.0177873
throughput change = 0.04
Class 0:
Packet latency average = 20.0841
	minimum = 7
	maximum = 42
Network latency average = 20.0841
	minimum = 7
	maximum = 42
Slowest packet = 2326
Flit latency average = 20.1674
	minimum = 7
	maximum = 42
Slowest flit = 2326
Fragmentation average = 0
	minimum = 0
	maximum = 0
Injected packet rate average = 0.00904167
	minimum = 0.00533333 (at node 12)
	maximum = 0.012 (at node 7)
Accepted packet rate average = 0.00920833
	minimum = 0.004 (at node 8)
	maximum = 0.014 (at node 12)
Injected flit rate average = 0.00904167
	minimum = 0.00533333 (at node 12)
	maximum = 0.012 (at node 7)
Accepted flit rate average= 0.00920833
	minimum = 0.004 (at node 8)
	maximum = 0.014 (at node 12)
Injected packet length average = 1
Accepted packet length average = 1
Total in-flight flits = 3 (3 measured)
latency change    = 0.0212491
throughput change = 0.0180995
Class 0:
Packet latency average = 19.8451
	minimum = 7
	maximum = 42
Network latency average = 19.8451
	minimum = 7
	maximum = 42
Slowest packet = 2326
Flit latency average = 19.9112
	minimum = 7
	maximum = 42
Slowest flit = 2326
Fragmentation average = 0
	minimum = 0
	maximum = 0
Injected packet rate average = 0.00940625
	minimum = 0.0065 (at node 3)
	maximum = 0.012 (at node 7)
Accepted packet rate average = 0.0095
	minimum = 0.0055 (at node 8)
	maximum = 0.0125 (at node 12)
Injected flit rate average = 0.00940625
	minimum = 0.0065 (at node 3)
	maximum = 0.012 (at node 7)
Accepted flit rate average= 0.0095
	minimum = 0.0055 (at node 8)
	maximum = 0.0125 (at node 12)
Injected packet length average = 1
Accepted packet length average = 1
Total in-flight flits = 4 (4 measured)
latency change    = 0.012043
throughput change = 0.0307018
Draining all recorded packets ...
Draining remaining packets ...
Time taken is 3531 cycles
Class 0:
Packet latency average = 17.8519
	minimum = 7
	maximum = 37
Network latency average = 17.8519
	minimum = 7
	maximum = 37
Slowest packet = 2542
Flit latency average = 17.8519
	minimum = 7
	maximum = 37
Slowest flit = 2542
Fragmentation average = 0
	minimum = 0
	maximum = 0
Injected packet rate average = 0.010375
	minimum = 0.002 (at node 0)
	maximum = 0.016 (at node 8)
Accepted packet rate average = 0.010125
	minimum = 0 (at node 15)
	maximum = 0.016 (at node 8)
Injected flit rate average = 0.010375
	minimum = 0.002 (at node 0)
	maximum = 0.016 (at node 8)
Accepted flit rate average= 0.010125
	minimum = 0 (at node 15)
	maximum = 0.016 (at node 8)
Injected packet length average = 1
Accepted packet length average = 1
Total in-flight flits = 2 (0 measured)
latency change    = 1
throughput change = 1
Class 0:
Packet latency average = 19.1384
	minimum = 7
	maximum = 37
Network latency average = 19.1384
	minimum = 7
	maximum = 37
Slowest packet = 2542
Flit latency average = 19.1384
	minimum = 7
	maximum = 37
Slowest flit = 2542
Fragmentation average = 0
	minimum = 0
	maximum = 0
Injected packet rate average = 0.0103125
	minimum = 0.008 (at node 0)
	maximum = 0.013 (at node 4)
Accepted packet rate average = 0.0099375
	minimum = 0.006 (at node 3)
	maximum = 0.014 (at node 6)
Injected flit rate average = 0.0103125
	minimum = 0.008 (at node 0)
	maximum = 0.013 (at node 4)
Accepted flit rate average= 0.0099375
	minimum = 0.006 (at node 3)
	maximum = 0.014 (at node 6)
Injected packet length average = 1
Accepted packet length average = 1
Total in-flight flits = 6 (0 measured)
latency change    = 0.0672217
throughput change = 0.0188679
Class 0:
Packet latency average = 20.0824
	minimum = 7
	maximum = 37
Network latency average = 20.0824
	minimum = 7
	maximum = 37
Slowest packet = 2675
Flit latency average = 20.0824
	minimum = 7
	maximum = 37
Slowest flit = 2675
Fragmentation average = 0
	minimum = 0
	maximum = 0
Injected packet rate average = 0.010375
	minimum = 0.004 (at node 4)
	maximum = 0.022 (at node 11)
Accepted packet rate average = 0.010625
	minimum = 0.002 (at node 15)
	maximum = 0.018 (at node 3)
Injected flit rate average = 0.010375
	minimum = 0.004 (at node 4)
	maximum = 0.022 (at node 11)
Accepted flit rate average= 0.010625
	minimum = 0.002 (at node 15)
	maximum = 0.018 (at node 3)
Injected packet length average = 1
Accepted packet length average = 1
Total in-flight flits = 4 (0 measured)
latency change    = 0.0470059
throughput change = 0.0647059
Warmed up ...Time used is 1500 cycles
Class 0:
Packet latency average = 19.7288
	minimum = 7
	maximum = 32
Network latency average = 19.7288
	minimum = 7
	maximum = 32
Slowest packet = 2735
Flit latency average = 19.8889
	minimum = 7
	maximum = 32
Slowest flit = 2735
Fragmentation average = 0
	minimum = 0
	maximum = 0
Injected packet rate average = 0.007625
	minimum = 0.002 (at node 9)
	maximum = 0.014 (at node 11)
Accepted packet rate average = 0.007875
	minimum = 0.002 (at node 14)
	maximum = 0.018 (at node 5)
Injected flit rate average = 0.007625
	minimum = 0.002 (at node 9)
	maximum = 0.014 (at node 11)
Accepted flit rate average= 0.007875
	minimum = 0.002 (at node 14)
	maximum = 0.018 (at node 5)
Injected packet length average = 1
Accepted packet length average = 1
Total in-flight flits = 2 (2 measured)
latency change    = 0.01792
throughput change = 0.349206
Class 0:
Packet latency average = 18.9856
	minimum = 7
	maximum = 37
Network latency average = 18.9856
	minimum = 7
	maximum = 37
Slowest packet = 2864
Flit latency average = 19.0769
	minimum = 7
	maximum = 37
Slowest flit = 2864
Fragmentation average = 0
	minimum = 0
	maximum = 0
Injected packet rate average = 0.00875
	minimum = 0.004 (at node 2)
	maximum = 0.014 (at node 11)
Accepted packet rate average = 0.0089375
	minimum = 0.005 (at node 1)
	maximum = 0.014 (at node 2)
Injected flit rate average = 0.00875
	minimum = 0.004 (at node 2)
	maximum = 0.014 (at node 11)
Accepted flit rate average= 0.0089375
	minimum = 0.005 (at node 1)
	maximum = 0.014 (at node 2)
Injected packet length average = 1
Accepted packet length average = 1
Total in-flight flits = 1 (1 measured)
latency change    = 0.0391455
throughput change = 0.118881
Class 0:
Packet latency average = 19.4464
	minimum = 7
	maximum = 37
Network latency average = 19.4464
	minimum = 7
	maximum = 37
Slowest packet = 2864
Flit latency average = 19.4956
	minimum = 7
	maximum = 37
Slowest flit = 2864
Fragmentation average = 0
	minimum = 0
	maximum = 0
Injected packet rate average = 0.00945833
	minimum = 0.004 (at node 9)
	maximum = 0.014 (at node 11)
Accepted packet rate average = 0.0095
	minimum = 0.00533333 (at node 11)
	maximum = 0.014 (at node 2)
Injected flit rate average = 0.00945833
	minimum = 0.004 (at node 9)
	maximum = 0.014 (at node 11)
Accepted flit rate average= 0.0095
	minimum = 0.00533333 (at node 11)
	maximum = 0.014 (at node 2)
Injected packet length average = 1
Accepted packet length average = 1
Total in-flight flits = 3 (3 measured)
latency change    = 0.0236967
throughput change = 0.0592105
Class 0:
Packet latency average = 19.5189
	minimum = 7
	maximum = 37
Network latency average = 19.5189
	minimum = 7
	maximum = 37
Slowest packet = 2864
Flit latency average = 19.5559
	minimum = 7
	maximum = 37
Slowest flit = 2864
Fragmentation average = 0
	minimum = 0
	maximum = 0
Injected packet rate average = 0.009125
	minimum = 0.003 (at node 9)
	maximum = 0.0145 (at node 11)
Accepted packet rate average = 0.00921875
	minimum = 0.006 (at node 11)
	maximum = 0.013 (at node 5)
Injected flit rate average = 0.009125
	minimum = 0.003 (at node 9)
	maximum = 0.0145 (at node 11)
Accepted flit rate average= 0.00921875
	minimum = 0.006 (at node 11)
	maximum = 0.013 (at node 5)
Injected packet length average = 1
Accepted packet length average = 1
Total in-flight flits = 1 (1 measured)
latency change    = 0.0037129
throughput change = 0.0305085
Class 0:
Packet latency average = 18.9344
	minimum = 7
	maximum = 37
Network latency average = 18.9344
	minimum = 7
	maximum = 37
Slowest packet = 2864
Flit latency average = 18.9703
	minimum = 7
	maximum = 37
Slowest flit = 2864
Fragmentation average = 0
	minimum = 0
	maximum = 0
Injected packet rate average = 0.0092
	minimum = 0.0044 (at node 9)
	maximum = 0.0136 (at node 11)
Accepted packet rate average = 0.00925
	minimum = 0.0064 (at node 13)
	maximum = 0.0124 (at node 2)
Injected flit rate average = 0.0092
	minimum = 0.0044 (at node 9)
	maximum = 0.0136 (at node 11)
Accepted flit rate average= 0.00925
	minimum = 0.0064 (at node 13)
	maximum = 0.0124 (at node 2)
Injected packet length average = 1
Accepted packet length average = 1
Total in-flight flits = 2 (2 measured)
latency change    = 0.0308683
throughput change = 0.00337838
Class 0:
Packet latency average = 19.0485
	minimum = 7
	maximum = 39
Network latency average = 19.0485
	minimum = 7
	maximum = 39
Slowest packet = 3117
Flit latency average = 19.0778
	minimum = 7
	maximum = 39
Slowest flit = 3117
Fragmentation average = 0
	minimum = 0
	maximum = 0
Injected packet rate average = 0.0090625
	minimum = 0.00466667 (at node 9)
	maximum = 0.0133333 (at node 11)
Accepted packet rate average = 0.00910417
	minimum = 0.00666667 (at node 11)
	maximum = 0.011 (at node 2)
Injected flit rate average = 0.0090625
	minimum = 0.00466667 (at node 9)
	maximum = 0.0133333 (at node 11)
Accepted flit rate average= 0.00910417
	minimum = 0.00666667 (at node 11)
	maximum = 0.011 (at node 2)
Injected packet length average = 1
Accepted packet length average = 1
Total in-flight flits = 2 (2 measured)
latency change    = 0.00598854
throughput change = 0.0160183
Draining all recorded packets ...
Draining remaining packets ...
Time taken is 4548 cycles
Class 0:
Packet latency average = 19.0732
	minimum = 7
	maximum = 34
Network latency average = 19.0732
	minimum = 7
	maximum = 34
Slowest packet = 3204
Flit latency average = 19.0732
	minimum = 7
	maximum = 34
Slowest flit = 3204
Fragmentation average = 0
	minimum = 0
	maximum = 0
Injected packet rate average = 0.0105
	minimum = 0.002 (at node 6)
	maximum = 0.02 (at node 10)
Accepted packet rate average = 0.01025
	minimum = 0.002 (at node 12)
	maximum = 0.02 (at node 5)
Injected flit rate average = 0.0105
	minimum = 0.002 (at node 6)
	maximum = 0.02 (at node 10)
Accepted flit rate average= 0.01025
	minimum = 0.002 (at node 12)
	maximum = 0.02 (at node 5)
Injected packet length average = 1
Accepted packet length average = 1
Total in-flight flits = 2 (0 measured)
latency change    = 1
throughput change = 1
Class 0:
Packet latency average = 18.9167
	minimum = 7
	maximum = 37
Network latency average = 18.9167
	minimum = 7
	maximum = 37
Slowest packet = 3279
Flit latency average = 18.9167
	minimum = 7
	maximum = 37
Slowest flit = 3279
Fragmentation average = 0
	minimum = 0
	maximum = 0
Injected packet rate average = 0.010125
	minimum = 0.004 (at node 6)
	maximum = 0.015 (at node 7)
Accepted packet rate average = 0.00975
	minimum = 0.006 (at node 15)
	maximum = 0.014 (at node 8)
Injected flit rate average = 0.010125
	minimum = 0.004 (at node 6)
	maximum = 0.015 (at node 7)
Accepted flit rate average= 0.00975
	minimum = 0.006 (at node 15)
	maximum = 0.014 (at node 8)
Injected packet length average = 1
Accepted packet length average = 1
Total in-flight flits = 6 (0 measured)
latency change    = 0.00827334
throughput change = 0.0512821
Class 0:
Packet latency average = 19.9775
	minimum = 7
	maximum = 41
Network latency average = 19.9775
	minimum = 7
	maximum = 41
Slowest packet = 3400
Flit latency average = 19.9775
	minimum = 7
	maximum = 41
Slowest flit = 3400
Fragmentation average = 0
	minimum = 0
	maximum = 0
Injected packet rate average = 0.0105
	minimum = 0.004 (at node 2)
	maximum = 0.028 (at node 12)
Accepted packet rate average = 0.011125
	minimum = 0 (at node 7)
	maximum = 0.022 (at node 6)
Injected flit rate average = 0.0105
	minimum = 0.004 (at node 2)
	maximum = 0.028 (at node 12)
Accepted flit rate average= 0.011125
	minimum = 0 (at node 7)
	maximum = 0.022 (at node 6)
Injected packet length average = 1
Accepted packet length average = 1
Total in-flight flits = 1 (0 measured)
latency change    = 0.0531027
throughput change = 0.123596
Warmed up ...Time used is 1500 cycles
Class 0:
Packet latency average = 20.4239
	minimum = 7
	maximum = 37
Network latency average = 20.4239
	minimum = 7
	maximum = 37
Slowest packet = 3460
Flit latency average = 20.5484
	minimum = 7
	maximum = 37
Slowest flit = 3460
Fragmentation average = 0
	minimum = 0
	maximum = 0
Injected packet rate average = 0.01175
	minimum = 0.004 (at node 1)
	maximum = 0.02 (at node 0)
Accepted packet rate average = 0.011625
	minimum = 0.004 (at node 4)
	maximum = 0.022 (at node 12)
Injected flit rate average = 0.01175
	minimum = 0.004 (at node 1)
	maximum = 0.02 (at node 0)
Accepted flit rate average= 0.011625
	minimum = 0.004 (at node 4)
	maximum = 0.022 (at node 12)
Injected packet length average = 1
Accepted packet length average = 1
Total in-flight flits = 2 (2 measured)
latency change    = 0.021856
throughput change = 0.0430108
Class 0:
Packet latency average = 20.3631
	minimum = 7
	maximum = 37
Network latency average = 20.3631
	minimum = 7
	maximum = 37
Slowest packet = 3460
Flit latency average = 20.432
	minimum = 7
	maximum = 37
Slowest flit = 3460
Fragmentation average = 0
	minimum = 0
	maximum = 0
Injected packet rate average = 0.0106875
	minimum = 0.004 (at node 12)
	maximum = 0.021 (at node 14)
Accepted packet rate average = 0.0105625
	minimum = 0.004 (at node 13)
	maximum = 0.018 (at node 12)
Injected flit rate average = 0.0106875
	minimum = 0.004 (at node 12)
	maximum = 0.021 (at node 14)
Accepted flit rate average= 0.0105625
	minimum = 0.004 (at node 13)
	maximum = 0.018 (at node 12)
Injected packet length average = 1
Accepted packet length average = 1
Total in-flight flits = 3 (3 measured)
latency change    = 0.00298667
throughput change = 0.100592
Class 0:
Packet latency average = 19.8478
	minimum = 7
	maximum = 37
Network latency average = 19.8478
	minimum = 7
	maximum = 37
Slowest packet = 3460
Flit latency average = 19.9004
	minimum = 7
	maximum = 37
Slowest flit = 3460
Fragmentation average = 0
	minimum = 0
	maximum = 0
Injected packet rate average = 0.00970833
	minimum = 0.00466667 (at node 8)
	maximum = 0.0146667 (at node 14)
Accepted packet rate average = 0.009625
	minimum = 0.00533333 (at node 13)
	maximum = 0.0146667 (at node 12)
Injected flit rate average = 0.00970833
	minimum = 0.00466667 (at node 8)
	maximum = 0.0146667 (at node 14)
Accepted flit rate average= 0.009625
	minimum = 0.00533333 (at node 13)
	maximum = 0.0146667 (at node 12)
Injected packet length average = 1
Accepted packet length average = 1
Total in-flight flits = 3 (3 measured)
latency change    = 0.025961
throughput change = 0.0974026
Class 0:
Packet latency average = 20.1367
	minimum = 7
	maximum = 37
Network latency average = 20.1367
	minimum = 7
	maximum = 37
Slowest packet = 3460
Flit latency average = 20.1761
	minimum = 7
	maximum = 37
Slowest flit = 3460
Fragmentation average = 0
	minimum = 0
	maximum = 0
Injected packet rate average = 0.00940625
	minimum = 0.0055 (at node 2)
	maximum = 0.0135 (at node 11)
Accepted packet rate average = 0.00940625
	minimum = 0.0065 (at node 5)
	maximum = 0.014 (at node 6)
Injected flit rate average = 0.00940625
	minimum = 0.0055 (at node 2)
	maximum = 0.0135 (at node 11)
Accepted flit rate average= 0.00940625
	minimum = 0.0065 (at node 5)
	maximum = 0.014 (at node 6)
Injected packet length average = 1
Accepted packet length average = 1
Total in-flight flits = 1 (1 measured)
latency change    = 0.014344
throughput change = 0.0232558
Class 0:
Packet latency average = 20.0668
	minimum = 7
	maximum = 37
Network latency average = 20.0668
	minimum = 7
	maximum = 37
Slowest packet = 3460
Flit latency average = 20.0987
	minimum = 7
	maximum = 37
Slowest flit = 3460
Fragmentation average = 0
	minimum = 0
	maximum = 0
Injected packet rate average = 0.0094
	minimum = 0.006 (at node 2)
	maximum = 0.0136 (at node 10)
Accepted packet rate average = 0.009375
	minimum = 0.0064 (at node 5)
	maximum = 0.0132 (at node 12)
Injected flit rate average = 0.0094
	minimum = 0.006 (at node 2)
	maximum = 0.0136 (at node 10)
Accepted flit rate average= 0.009375
	minimum = 0.0064 (at node 5)
	maximum = 0.0132 (at node 12)
Injected packet length average = 1
Accepted packet length average = 1
Total in-flight flits = 2 (2 measured)
latency change    = 0.00347946
throughput change = 0.00333333
Class 0:
Packet latency average = 19.9027
	minimum = 7
	maximum = 37
Network latency average = 19.9027
	minimum = 7
	maximum = 37
Slowest packet = 3460
Flit latency average = 19.9294
	minimum = 7
	maximum = 37
Slowest flit = 3460
Fragmentation average = 0
	minimum = 0
	maximum = 0
Injected packet rate average = 0.00947917
	minimum = 0.00633333 (at node 8)
	maximum = 0.0136667 (at node 11)
Accepted packet rate average = 0.0094375
	minimum = 0.00666667 (at node 5)
	maximum = 0.0126667 (at node 12)
Injected flit rate average = 0.00947917
	minimum = 0.00633333 (at node 8)
	maximum = 0.0136667 (at node 11)
Accepted flit rate average= 0.0094375
	minimum = 0.00666667 (at node 5)
	maximum = 0.0126667 (at node 12)
Injected packet length average = 1
Accepted packet length average = 1
Total in-flight flits = 3 (3 measured)
latency change    = 0.00824966
throughput change = 0.00662252
Draining all recorded packets ...
Draining remaining packets ...
Time taken is 4538 cycles
Class 0:
Packet latency average = 19.8676
	minimum = 7
	maximum = 37
Network latency average = 19.8676
	minimum = 7
	maximum = 37
Slowest packet = 3877
Flit latency average = 19.8676
	minimum = 7
	maximum = 37
Slowest flit = 3877
Fragmentation average = 0
	minimum = 0
	maximum = 0
Injected packet rate average = 0.00925
	minimum = 0 (at node 10)
	maximum = 0.018 (at node 14)
Accepted packet rate average = 0.0085
	minimum = 0.002 (at node 2)
	maximum = 0.018 (at node 4)
Injected flit rate average = 0.00925
	minimum = 0 (at node 10)
	maximum = 0.018 (at node 14)
Accepted flit rate average= 0.0085
	minimum = 0.002 (at node 2)
	maximum = 0.018 (at node 4)
Injected packet length average = 1
Accepted packet length average = 1
Total in-flight flits = 6 (0 measured)
latency change    = 1
throughput change = 1
Class 0:
Packet latency average = 20.2812
	minimum = 7
	maximum = 38
Network latency average = 20.2812
	minimum = 7
	maximum = 38
Slowest packet = 3961
Flit latency average = 20.2812
	minimum = 7
	maximum = 38
Slowest flit = 3961
Fragmentation average = 0
	minimum = 0
	maximum = 0
Injected packet rate average = 0.0101875
	minimum = 0.004 (at node 12)
	maximum = 0.017 (at node 14)
Accepted packet rate average = 0.01
	minimum = 0.004 (at node 2)
	maximum = 0.014 (at node 15)
Injected flit rate average = 0.0101875
	minimum = 0.004 (at node 12)
	maximum = 0.017 (at node 14)
Accepted flit rate average= 0.01
	minimum = 0.004 (at node 2)
	maximum = 0.014 (at node 15)
Injected packet length average = 1
Accepted packet length average = 1
Total in-flight flits = 3 (0 measured)
latency change    = 0.0203934
throughput change = 0.15
Class 0:
Packet latency average = 19.3333
	minimum = 7
	maximum = 37
Network latency average = 19.3333
	minimum = 7
	maximum = 37
Slowest packet = 4085
Flit latency average = 19.3333
	minimum = 7
	maximum = 37
Slowest flit = 4085
Fragmentation average = 0
	minimum = 0
	maximum = 0
Injected packet rate average = 0.011375
	minimum = 0.006 (at node 4)
	maximum = 0.022 (at node 8)
Accepted packet rate average = 0.01125
	minimum = 0.002 (at node 4)
	maximum = 0.022 (at node 5)
Injected flit rate average = 0.011375
	minimum = 0.006 (at node 4)
	maximum = 0.022 (at node 8)
Accepted flit rate average= 0.01125
	minimum = 0.002 (at node 4)
	maximum = 0.022 (at node 5)
Injected packet length average = 1
Accepted packet length average = 1
Total in-flight flits = 4 (0 measured)
latency change    = 0.0490302
throughput change = 0.111111
Warmed up ...Time used is 1500 cycles
Class 0:
Packet latency average = 19.4444
	minimum = 7
	maximum = 37
Network latency average = 19.4444
	minimum = 7
	maximum = 37
Slowest packet = 4178
Flit latency average = 19.4478
	minimum = 7
	maximum = 37
Slowest flit = 4178
Fragmentation average = 0
	minimum = 0
	maximum = 0
Injected packet rate average = 0.008375
	minimum = 0.004 (at node 6)
	maximum = 0.012 (at node 2)
Accepted packet rate average = 0.008375
	minimum = 0 (at node 13)
	maximum = 0.014 (at node 3)
Injected flit rate average = 0.008375
	minimum = 0.004 (at node 6)
	maximum = 0.012 (at node 2)
Accepted flit rate average= 0.008375
	minimum = 0 (at node 13)
	maximum = 0.014 (at node 3)
Injected packet length average = 1
Accepted packet length average = 1
Total in-flight flits = 4 (4 measured)
latency change    = 0.00571429
throughput change = 0.343284
Class 0:
Packet latency average = 19.4653
	minimum = 7
	maximum = 37
Network latency average = 19.4653
	minimum = 7
	maximum = 37
Slowest packet = 4178
Flit latency average = 19.4662
	minimum = 7
	maximum = 37
Slowest flit = 4178
Fragmentation average = 0
	minimum = 0
	maximum = 0
Injected packet rate average = 0.009375
	minimum = 0.004 (at node 7)
	maximum = 0.014 (at node 2)
Accepted packet rate average = 0.00925
	minimum = 0.004 (at node 1)
	maximum = 0.017 (at node 3)
Injected flit rate average = 0.009375
	minimum = 0.004 (at node 7)
	maximum = 0.014 (at node 2)
Accepted flit rate average= 0.00925
	minimum = 0.004 (at node 1)
	maximum = 0.017 (at node 3)
Injected packet length average = 1
Accepted packet length average = 1
Total in-flight flits = 6 (6 measured)
latency change    = 0.00107028
throughput change = 0.0945946
Class 0:
Packet latency average = 19.8987
	minimum = 7
	maximum = 37
Network latency average = 19.8987
	minimum = 7
	maximum = 37
Slowest packet = 4178
Flit latency average = 19.8918
	minimum = 7
	maximum = 37
Slowest flit = 4178
Fragmentation average = 0
	minimum = 0
	maximum = 0
Injected packet rate average = 0.009625
	minimum = 0.00533333 (at node 7)
	maximum = 0.0153333 (at node 8)
Accepted packet rate average = 0.009625
	minimum = 0.00533333 (at node 8)
	maximum = 0.0166667 (at node 7)
Injected flit rate average = 0.009625
	minimum = 0.00533333 (at node 7)
	maximum = 0.0153333 (at node 8)
Accepted flit rate average= 0.009625
	minimum = 0.00533333 (at node 8)
	maximum = 0.0166667 (at node 7)
Injected packet length average = 1
Accepted packet length average = 1
Total in-flight flits = 4 (4 measured)
latency change    = 0.0217804
throughput change = 0.038961
Class 0:
Packet latency average = 19.9318
	minimum = 7
	maximum = 37
Network latency average = 19.9318
	minimum = 7
	maximum = 37
Slowest packet = 4178
Flit latency average = 19.9263
	minimum = 7
	maximum = 37
Slowest flit = 4178
Fragmentation average = 0
	minimum = 0
	maximum = 0
Injected packet rate average = 0.009625
	minimum = 0.006 (at node 7)
	maximum = 0.013 (at node 8)
Accepted packet rate average = 0.00975
	minimum = 0.0055 (at node 13)
	maximum = 0.0155 (at node 7)
Injected flit rate average = 0.009625
	minimum = 0.006 (at node 7)
	maximum = 0.013 (at node 8)
Accepted flit rate average= 0.00975
	minimum = 0.0055 (at node 13)
	maximum = 0.0155 (at node 7)
Injected packet length average = 1
Accepted packet length average = 1
Total in-flight flits = 0 (0 measured)
latency change    = 0.00166266
throughput change = 0.0128205
Class 0:
Packet latency average = 19.8438
	minimum = 7
	maximum = 37
Network latency average = 19.8438
	minimum = 7
	maximum = 37
Slowest packet = 4178
Flit latency average = 19.8404
	minimum = 7
	maximum = 37
Slowest flit = 4178
Fragmentation average = 0
	minimum = 0
	maximum = 0
Injected packet rate average = 0.01005
	minimum = 0.0064 (at node 7)
	maximum = 0.0156 (at node 8)
Accepted packet rate average = 0.010025
	minimum = 0.0068 (at node 13)
	maximum = 0.0144 (at node 7)
Injected flit rate average = 0.01005
	minimum = 0.0064 (at node 7)
	maximum = 0.0156 (at node 8)
Accepted flit rate average= 0.010025
	minimum = 0.0068 (at node 13)
	maximum = 0.0144 (at node 7)
Injected packet length average = 1
Accepted packet length average = 1
Total in-flight flits = 5 (5 measured)
latency change    = 0.0044341
throughput change = 0.0274314
Draining all recorded packets ...
Draining remaining packets ...
Time taken is 4024 cycles
Class 0:
Packet latency average = 19.3108
	minimum = 7
	maximum = 37
Network latency average = 19.3108
	minimum = 7
	maximum = 37
Slowest packet = 4560
Flit latency average = 19.3108
	minimum = 7
	maximum = 37
Slowest flit = 4560
Fragmentation average = 0
	minimum = 0
	maximum = 0
Injected packet rate average = 0.009625
	minimum = 0.004 (at node 2)
	maximum = 0.02 (at node 5)
Accepted packet rate average = 0.00925
	minimum = 0.004 (at node 2)
	maximum = 0.026 (at node 15)
Injected flit rate average = 0.009625
	minimum = 0.004 (at node 2)
	maximum = 0.02 (at node 5)
Accepted flit rate average= 0.00925
	minimum = 0.004 (at node 2)
	maximum = 0.026 (at node 15)
Injected packet length average = 1
Accepted packet length average = 1
Total in-flight flits = 3 (0 measured)
latency change    = 1
throughput change = 1
Class 0:
Packet latency average = 18.8214
	minimum = 7
	maximum = 37
Network latency average = 18.8214
	minimum = 7
	maximum = 37
Slowest packet = 4560
Flit latency average = 18.8214
	minimum = 7
	maximum = 37
Slowest flit = 4560
Fragmentation average = 0
	minimum = 0
	maximum = 0
Injected packet rate average = 0.0108125
	minimum = 0.006 (at node 14)
	maximum = 0.02 (at node 5)
Accepted packet rate average = 0.0105
	minimum = 0.007 (at node 1)
	maximum = 0.018 (at node 15)
Injected flit rate average = 0.0108125
	minimum = 0.006 (at node 14)
	maximum = 0.02 (at node 5)
Accepted flit rate average= 0.0105
	minimum = 0.007 (at node 1)
	maximum = 0.018 (at node 15)
Injected packet length average = 1
Accepted packet length average = 1
Total in-flight flits = 5 (0 measured)
latency change    = 0.0260013
throughput change = 0.119048
Class 0:
Packet latency average = 20.5072
	minimum = 7
	maximum = 38
Network latency average = 20.5072
	minimum = 7
	maximum = 38
Slowest packet = 4733
Flit latency average = 20.5072
	minimum = 7
	maximum = 38
Slowest flit = 4733
Fragmentation average = 0
	minimum = 0
	maximum = 0
Injected packet rate average = 0.008125
	minimum = 0.002 (at node 0)
	maximum = 0.014 (at node 12)
Accepted packet rate average = 0.008625
	minimum = 0.002 (at node 8)
	maximum = 0.024 (at node 1)
Injected flit rate average = 0.008125
	minimum = 0.002 (at node 0)
	maximum = 0.014 (at node 12)
Accepted flit rate average= 0.008625
	minimum = 0.002 (at node 8)
	maximum = 0.024 (at node 1)
Injected packet length average = 1
Accepted packet length average = 1
Total in-flight flits = 1 (0 measured)
latency change    = 0.082206
throughput change = 0.217391
Warmed up ...Time used is 1500 cycles
Class 0:
Packet latency average = 18.9286
	minimum = 7
	maximum = 37
Network latency average = 18.9286
	minimum = 7
	maximum = 37
Slowest packet = 4789
Flit latency average = 18.9718
	minimum = 7
	maximum = 37
Slowest flit = 4789
Fragmentation average = 0
	minimum = 0
	maximum = 0
Injected packet rate average = 0.009125
	minimum = 0.002 (at node 3)
	maximum = 0.018 (at node 15)
Accepted packet rate average = 0.008875
	minimum = 0.002 (at node 6)
	maximum = 0.018 (at node 8)
Injected flit rate average = 0.009125
	minimum = 0.002 (at node 3)
	maximum = 0.018 (at node 15)
Accepted flit rate average= 0.008875
	minimum = 0.002 (at node 6)
	maximum = 0.018 (at node 8)
Injected packet length average = 1
Accepted packet length average = 1
Total in-flight flits = 3 (3 measured)
latency change    = 0.0834017
throughput change = 0.028169
Class 0:
Packet latency average = 19.9187
	minimum = 7
	maximum = 38
Network latency average = 19.9187
	minimum = 7
	maximum = 38
Slowest packet = 4908
Flit latency average = 19.9317
	minimum = 7
	maximum = 38
Slowest flit = 4908
Fragmentation average = 0
	minimum = 0
	maximum = 0
Injected packet rate average = 0.010125
	minimum = 0.004 (at node 9)
	maximum = 0.019 (at node 0)
Accepted packet rate average = 0.0100625
	minimum = 0.003 (at node 6)
	maximum = 0.017 (at node 8)
Injected flit rate average = 0.010125
	minimum = 0.004 (at node 9)
	maximum = 0.019 (at node 0)
Accepted flit rate average= 0.0100625
	minimum = 0.003 (at node 6)
	maximum = 0.017 (at node 8)
Injected packet length average = 1
Accepted packet length average = 1
Total in-flight flits = 2 (2 measured)
latency change    = 0.0497109
throughput change = 0.118012
Class 0:
Packet latency average = 19.7437
	minimum = 7
	maximum = 38
Network latency average = 19.7437
	minimum = 7
	maximum = 38
Slowest packet = 4908
Flit latency average = 19.7531
	minimum = 7
	maximum = 38
Slowest flit = 4908
Fragmentation average = 0
	minimum = 0
	maximum = 0
Injected packet rate average = 0.00995833
	minimum = 0.006 (at node 3)
	maximum = 0.014 (at node 10)
Accepted packet rate average = 0.00995833
	minimum = 0.00333333 (at node 6)
	maximum = 0.0153333 (at node 8)
Injected flit rate average = 0.00995833
	minimum = 0.006 (at node 3)
	maximum = 0.014 (at node 10)
Accepted flit rate average= 0.00995833
	minimum = 0.00333333 (at node 6)
	maximum = 0.0153333 (at node 8)
Injected packet length average = 1
Accepted packet length average = 1
Total in-flight flits = 1 (1 measured)
latency change    = 0.00886625
throughput change = 0.0104603
Class 0:
Packet latency average = 19.9472
	minimum = 7
	maximum = 38
Network latency average = 19.9472
	minimum = 7
	maximum = 38
Slowest packet = 4908
Flit latency average = 19.9536
	minimum = 7
	maximum = 38
Slowest flit = 4908
Fragmentation average = 0
	minimum = 0
	maximum = 0
Injected packet rate average = 0.0102188
	minimum = 0.0075 (at node 6)
	maximum = 0.015 (at node 15)
Accepted packet rate average = 0.0100938
	minimum = 0.0065 (at node 6)
	maximum = 0.015 (at node 8)
Injected flit rate average = 0.0102188
	minimum = 0.0075 (at node 6)
	maximum = 0.015 (at node 15)
Accepted flit rate average= 0.0100938
	minimum = 0.0065 (at node 6)
	maximum = 0.015 (at node 8)
Injected packet length average = 1
Accepted packet length average = 1
Total in-flight flits = 5 (5 measured)
latency change    = 0.0102023
throughput change = 0.0134159
Class 0:
Packet latency average = 19.7575
	minimum = 7
	maximum = 41
Network latency average = 19.7575
	minimum = 7
	maximum = 41
Slowest packet = 5098
Flit latency average = 19.7631
	minimum = 7
	maximum = 41
Slowest flit = 5098
Fragmentation average = 0
	minimum = 0
	maximum = 0
Injected packet rate average = 0.010075
	minimum = 0.0076 (at node 7)
	maximum = 0.0136 (at node 15)
Accepted packet rate average = 0.010025
	minimum = 0.0068 (at node 6)
	maximum = 0.0132 (at node 14)
Injected flit rate average = 0.010075
	minimum = 0.0076 (at node 7)
	maximum = 0.0136 (at node 15)
Accepted flit rate average= 0.010025
	minimum = 0.0068 (at node 6)
	maximum = 0.0132 (at node 14)
Injected packet length average = 1
Accepted packet length average = 1
Total in-flight flits = 3 (3 measured)
latency change    = 0.00960167
throughput change = 0.00685786
Draining all recorded packets ...
Draining remaining packets ...
Time taken is 4024 cycles
Class 0:
Packet latency average = 20.7083
	minimum = 7
	maximum = 37
Network latency average = 20.7083
	minimum = 7
	maximum = 37
Slowest packet = 5199
Flit latency average = 20.7083
	minimum = 7
	maximum = 37
Slowest flit = 5199
Fragmentation average = 0
	minimum = 0
	maximum = 0
Injected packet rate average = 0.00925
	minimum = 0.004 (at node 6)
	maximum = 0.016 (at node 3)
Accepted packet rate average = 0.009
	minimum = 0.002 (at node 8)
	maximum = 0.014 (at node 14)
Injected flit rate average = 0.00925
	minimum = 0.004 (at node 6)
	maximum = 0.016 (at node 3)
Accepted flit rate average= 0.009
	minimum = 0.002 (at node 8)
	maximum = 0.014 (at node 14)
Injected packet length average = 1
Accepted packet length average = 1
Total in-flight flits = 2 (0 measured)
latency change    = 1
throughput change = 1
Class 0:
Packet latency average = 20.1656
	minimum = 7
	maximum = 37
Network latency average = 20.1656
	minimum = 7
	maximum = 37
Slowest packet = 5199
Flit latency average = 20.1656
	minimum = 7
	maximum = 37
Slowest flit = 5199
Fragmentation average = 0
	minimum = 0
	maximum = 0
Injected packet rate average = 0.009875
	minimum = 0.005 (at node 5)
	maximum = 0.017 (at node 12)
Accepted packet rate average = 0.0098125
	minimum = 0.004 (at node 8)
	maximum = 0.016 (at node 1)
Injected flit rate average = 0.009875
	minimum = 0.005 (at node 5)
	maximum = 0.017 (at node 12)
Accepted flit rate average= 0.0098125
	minimum = 0.004 (at node 8)
	maximum = 0.016 (at node 1)
Injected packet length average = 1
Accepted packet length average = 1
Total in-flight flits = 1 (0 measured)
latency change    = 0.0269136
throughput change = 0.0828025
Class 0:
Packet latency average = 20.1507
	minimum = 7
	maximum = 32
Network latency average = 20.1507
	minimum = 7
	maximum = 32
Slowest packet = 5336
Flit latency average = 20.1507
	minimum = 7
	maximum = 32
Slowest flit = 5336
Fragmentation average = 0
	minimum = 0
	maximum = 0
Injected packet rate average = 0.009125
	minimum = 0.004 (at node 5)
	maximum = 0.018 (at node 8)
Accepted packet rate average = 0.009125
	minimum = 0 (at node 10)
	maximum = 0.016 (at node 7)
Injected flit rate average = 0.009125
	minimum = 0.004 (at node 5)
	maximum = 0.018 (at node 8)
Accepted flit rate average= 0.009125
	minimum = 0 (at node 10)
	maximum = 0.016 (at node 7)
Injected packet length average = 1
Accepted packet length average = 1
Total in-flight flits = 1 (0 measured)
latency change    = 0.00074043
throughput change = 0.0753425
Warmed up ...Time used is 1500 cycles
Class 0:
Packet latency average = 20.873
	minimum = 7
	maximum = 32
Network latency average = 20.873
	minimum = 7
	maximum = 32
Slowest packet = 5405
Flit latency average = 20.9688
	minimum = 7
	maximum = 32
Slowest flit = 5405
Fragmentation average = 0
	minimum = 0
	maximum = 0
Injected packet rate average = 0.008375
	minimum = 0.004 (at node 2)
	maximum = 0.014 (at node 9)
Accepted packet rate average = 0.008
	minimum = 0.004 (at node 2)
	maximum = 0.02 (at node 7)
Injected flit rate average = 0.008375
	minimum = 0.004 (at node 2)
	maximum = 0.014 (at node 9)
Accepted flit rate average= 0.008
	minimum = 0.004 (at node 2)
	maximum = 0.02 (at node 7)
Injected packet length average = 1
Accepted packet length average = 1
Total in-flight flits = 4 (4 measured)
latency change    = 0.034606
throughput change = 0.140625
Class 0:
Packet latency average = 20.3857
	minimum = 7
	maximum = 37
Network latency average = 20.3857
	minimum = 7
	maximum = 37
Slowest packet = 5482
Flit latency average = 20.4326
	minimum = 7
	maximum = 37
Slowest flit = 5482
Fragmentation average = 0
	minimum = 0
	maximum = 0
Injected packet rate average = 0.0088125
	minimum = 0.004 (at node 11)
	maximum = 0.015 (at node 12)
Accepted packet rate average = 0.0088125
	minimum = 0.004 (at node 11)
	maximum = 0.017 (at node 7)
Injected flit rate average = 0.0088125
	minimum = 0.004 (at node 11)
	maximum = 0.015 (at node 12)
Accepted flit rate average= 0.0088125
	minimum = 0.004 (at node 11)
	maximum = 0.017 (at node 7)
Injected packet length average = 1
Accepted packet length average = 1
Total in-flight flits = 1 (1 measured)
latency change    = 0.0239041
throughput change = 0.0921986
Class 0:
Packet latency average = 20.3048
	minimum = 7
	maximum = 37
Network latency average = 20.3048
	minimum = 7
	maximum = 37
Slowest packet = 5482
Flit latency average = 20.3365
	minimum = 7
	maximum = 37
Slowest flit = 5482
Fragmentation average = 0
	minimum = 0
	maximum = 0
Injected packet rate average = 0.00883333
	minimum = 0.004 (at node 0)
	maximum = 0.0126667 (at node 12)
Accepted packet rate average = 0.00879167
	minimum = 0.006 (at node 6)
	maximum = 0.014 (at node 7)
Injected flit rate average = 0.00883333
	minimum = 0.004 (at node 0)
	maximum = 0.0126667 (at node 12)
Accepted flit rate average= 0.00879167
	minimum = 0.006 (at node 6)
	maximum = 0.014 (at node 7)
Injected packet length average = 1
Accepted packet length average = 1
Total in-flight flits = 2 (2 measured)
latency change    = 0.00398687
throughput change = 0.00236967
Class 0:
Packet latency average = 20.1031
	minimum = 7
	maximum = 37
Network latency average = 20.1031
	minimum = 7
	maximum = 37
Slowest packet = 5482
Flit latency average = 20.1267
	minimum = 7
	maximum = 37
Slowest flit = 5482
Fragmentation average = 0
	minimum = 0
	maximum = 0
Injected packet rate average = 0.00925
	minimum = 0.0055 (at node 0)
	maximum = 0.014 (at node 6)
Accepted packet rate average = 0.009125
	minimum = 0.0065 (at node 13)
	maximum = 0.0125 (at node 7)
Injected flit rate average = 0.00925
	minimum = 0.0055 (at node 0)
	maximum = 0.014 (at node 6)
Accepted flit rate average= 0.009125
	minimum = 0.0065 (at node 13)
	maximum = 0.0125 (at node 7)
Injected packet length average = 1
Accepted packet length average = 1
Total in-flight flits = 5 (5 measured)
latency change    = 0.0100317
throughput change = 0.0365297
Class 0:
Packet latency average = 19.6851
	minimum = 7
	maximum = 37
Network latency average = 19.6851
	minimum = 7
	maximum = 37
Slowest packet = 5482
Flit latency average = 19.7052
	minimum = 7
	maximum = 37
Slowest flit = 5482
Fragmentation average = 0
	minimum = 0
	maximum = 0
Injected packet rate average = 0.00915
	minimum = 0.0056 (at node 11)
	maximum = 0.0128 (at node 13)
Accepted packet rate average = 0.009075
	minimum = 0.0064 (at node 13)
	maximum = 0.0116 (at node 7)
Injected flit rate average = 0.00915
	minimum = 0.0056 (at node 11)
	maximum = 0.0128 (at node 13)
Accepted flit rate average= 0.009075
	minimum = 0.0064 (at node 13)
	maximum = 0.0116 (at node 7)
Injected packet length average = 1
Accepted packet length average = 1
Total in-flight flits = 4 (4 measured)
latency change    = 0.0212349
throughput change = 0.00550964
Draining all recorded packets ...
Draining remaining packets ...
Time taken is 4042 cycles
Class 0:
Packet latency average = 20.561
	minimum = 7
	maximum = 37
Network latency average = 20.561
	minimum = 7
	maximum = 37
Slowest packet = 5776
Flit latency average = 20.561
	minimum = 7
	maximum = 37
Slowest flit = 5776
Fragmentation average = 0
	minimum = 0
	maximum = 0
Injected packet rate average = 0.010625
	minimum = 0.002 (at node 7)
	maximum = 0.02 (at node 4)
Accepted packet rate average = 0.01025
	minimum = 0.004 (at node 11)
	maximum = 0.014 (at node 1)
Injected flit rate average = 0.010625
	minimum = 0.002 (at node 7)
	maximum = 0.02 (at node 4)
Accepted flit rate average= 0.01025
	minimum = 0.004 (at node 11)
	maximum = 0.014 (at node 1)
Injected packet length average = 1
Accepted packet length average = 1
Total in-flight flits = 3 (0 measured)
latency change    = 1
throughput change = 1
Class 0:
Packet latency average = 19.9226
	minimum = 7
	maximum = 37
Network latency average = 19.9226
	minimum = 7
	maximum = 37
Slowest packet = 5776
Flit latency average = 19.9226
	minimum = 7
	maximum = 37
Slowest flit = 5776
Fragmentation average = 0
	minimum = 0
	maximum = 0
Injected packet rate average = 0.0098125
	minimum = 0.004 (at node 9)
	maximum = 0.015 (at node 12)
Accepted packet rate average = 0.0096875
	minimum = 0.006 (at node 11)
	maximum = 0.014 (at node 3)
Injected flit rate average = 0.0098125
	minimum = 0.004 (at node 9)
	maximum = 0.015 (at node 12)
Accepted flit rate average= 0.0096875
	minimum = 0.006 (at node 11)
	maximum = 0.014 (at node 3)
Injected packet length average = 1
Accepted packet length average = 1
Total in-flight flits = 2 (0 measured)
latency change    = 0.0320438
throughput change = 0.0580645
Class 0:
Packet latency average = 19.1548
	minimum = 7
	maximum = 32
Network latency average = 19.1548
	minimum = 7
	maximum = 32
Slowest packet = 5938
Flit latency average = 19.1548
	minimum = 7
	maximum = 32
Slowest flit = 5938
Fragmentation average = 0
	minimum = 0
	maximum = 0
Injected packet rate average = 0.010625
	minimum = 0.002 (at node 7)
	maximum = 0.016 (at node 0)
Accepted packet rate average = 0.0105
	minimum = 0 (at node 4)
	maximum = 0.018 (at node 5)
Injected flit rate average = 0.010625
	minimum = 0.002 (at node 7)
	maximum = 0.016 (at node 0)
Accepted flit rate average= 0.0105
	minimum = 0 (at node 4)
	maximum = 0.018 (at node 5)
Injected packet length average = 1
Accepted packet length average = 1
Total in-flight flits = 3 (0 measured)
latency change    = 0.040085
throughput change = 0.077381
Warmed up ...Time used is 1500 cycles
Class 0:
Packet latency average = 18.383
	minimum = 7
	maximum = 37
Network latency average = 18.383
	minimum = 7
	maximum = 37
Slowest packet = 6102
Flit latency average = 18.2887
	minimum = 7
	maximum = 37
Slowest flit = 6102
Fragmentation average = 0
	minimum = 0
	maximum = 0
Injected packet rate average = 0.01225
	minimum = 0.004 (at node 0)
	maximum = 0.02 (at node 11)
Accepted packet rate average = 0.012125
	minimum = 0.002 (at node 5)
	maximum = 0.018 (at node 3)
Injected flit rate average = 0.01225
	minimum = 0.004 (at node 0)
	maximum = 0.02 (at node 11)
Accepted flit rate average= 0.012125
	minimum = 0.002 (at node 5)
	maximum = 0.018 (at node 3)
Injected packet length average = 1
Accepted packet length average = 1
Total in-flight flits = 4 (4 measured)
latency change    = 0.0419836
throughput change = 0.134021
Class 0:
Packet latency average = 19.5291
	minimum = 7
	maximum = 37
Network latency average = 19.5291
	minimum = 7
	maximum = 37
Slowest packet = 6102
Flit latency average = 19.4571
	minimum = 7
	maximum = 37
Slowest flit = 6102
Fragmentation average = 0
	minimum = 0
	maximum = 0
Injected packet rate average = 0.0109375
	minimum = 0.004 (at node 1)
	maximum = 0.016 (at node 6)
Accepted packet rate average = 0.0109375
	minimum = 0.006 (at node 11)
	maximum = 0.015 (at node 8)
Injected flit rate average = 0.0109375
	minimum = 0.004 (at node 1)
	maximum = 0.016 (at node 6)
Accepted flit rate average= 0.0109375
	minimum = 0.006 (at node 11)
	maximum = 0.015 (at node 8)
Injected packet length average = 1
Accepted packet length average = 1
Total in-flight flits = 3 (3 measured)
latency change    = 0.0586864
throughput change = 0.108571
Class 0:
Packet latency average = 19.4772
	minimum = 7
	maximum = 37
Network latency average = 19.4772
	minimum = 7
	maximum = 37
Slowest packet = 6102
Flit latency average = 19.4262
	minimum = 7
	maximum = 37
Slowest flit = 6102
Fragmentation average = 0
	minimum = 0
	maximum = 0
Injected packet rate average = 0.0101667
	minimum = 0.006 (at node 13)
	maximum = 0.016 (at node 11)
Accepted packet rate average = 0.0101667
	minimum = 0.00666667 (at node 15)
	maximum = 0.0126667 (at node 0)
Injected flit rate average = 0.0101667
	minimum = 0.006 (at node 13)
	maximum = 0.016 (at node 11)
Accepted flit rate average= 0.0101667
	minimum = 0.00666667 (at node 15)
	maximum = 0.0126667 (at node 0)
Injected packet length average = 1
Accepted packet length average = 1
Total in-flight flits = 3 (3 measured)
latency change    = 0.00266421
throughput change = 0.0758197
Class 0:
Packet latency average = 19.7826
	minimum = 7
	maximum = 41
Network latency average = 19.7826
	minimum = 7
	maximum = 41
Slowest packet = 6286
Flit latency average = 19.7415
	minimum = 7
	maximum = 41
Slowest flit = 6286
Fragmentation average = 0
	minimum = 0
	maximum = 0
Injected packet rate average = 0.010125
	minimum = 0.007 (at node 13)
	maximum = 0.0135 (at node 11)
Accepted packet rate average = 0.0101563
	minimum = 0.008 (at node 11)
	maximum = 0.0135 (at node 0)
Injected flit rate average = 0.010125
	minimum = 0.007 (at node 13)
	maximum = 0.0135 (at node 11)
Accepted flit rate average= 0.0101563
	minimum = 0.008 (at node 11)
	maximum = 0.0135 (at node 0)
Injected packet length average = 1
Accepted packet length average = 1
Total in-flight flits = 2 (2 measured)
latency change    = 0.0154393
throughput change = 0.00102564
Class 0:
Packet latency average = 19.7512
	minimum = 7
	maximum = 41
Network latency average = 19.7512
	minimum = 7
	maximum = 41
Slowest packet = 6286
Flit latency average = 19.7191
	minimum = 7
	maximum = 41
Slowest flit = 6286
Fragmentation average = 0
	minimum = 0
	maximum = 0
Injected packet rate average = 0.01035
	minimum = 0.008 (at node 1)
	maximum = 0.0128 (at node 2)
Accepted packet rate average = 0.010325
	minimum = 0.008 (at node 14)
	maximum = 0.0136 (at node 7)
Injected flit rate average = 0.01035
	minimum = 0.008 (at node 1)
	maximum = 0.0128 (at node 2)
Accepted flit rate average= 0.010325
	minimum = 0.008 (at node 14)
	maximum = 0.0136 (at node 7)
Injected packet length average = 1
Accepted packet length average = 1
Total in-flight flits = 4 (4 measured)
latency change    = 0.00158923
throughput change = 0.0163438
Class 0:
Packet latency average = 19.6856
	minimum = 7
	maximum = 41
Network latency average = 19.6856
	minimum = 7
	maximum = 41
Slowest packet = 6286
Flit latency average = 19.6593
	minimum = 7
	maximum = 41
Slowest flit = 6286
Fragmentation average = 0
	minimum = 0
	maximum = 0
Injected packet rate average = 0.0102917
	minimum = 0.00766667 (at node 5)
	maximum = 0.013 (at node 7)
Accepted packet rate average = 0.0103333
	minimum = 0.008 (at node 14)
	maximum = 0.0123333 (at node 2)
Injected flit rate average = 0.0102917
	minimum = 0.00766667 (at node 5)
	maximum = 0.013 (at node 7)
Accepted flit rate average= 0.0103333
	minimum = 0.008 (at node 14)
	maximum = 0.0123333 (at node 2)
Injected packet length average = 1
Accepted packet length average = 1
Total in-flight flits = 1 (1 measured)
latency change    = 0.00333346
throughput change = 0.000806452
Draining all recorded packets ...
Draining remaining packets ...
Time taken is 4550 cycles
Class 0:
Packet latency average = 20.2
	minimum = 7
	maximum = 37
Network latency average = 20.2
	minimum = 7
	maximum = 37
Slowest packet = 6537
Flit latency average = 20.2
	minimum = 7
	maximum = 37
Slowest flit = 6537
Fragmentation average = 0
	minimum = 0
	maximum = 0
Injected packet rate average = 0.011
	minimum = 0.004 (at node 6)
	maximum = 0.02 (at node 2)
Accepted packet rate average = 0.010625
	minimum = 0.004 (at node 15)
	maximum = 0.018 (at node 3)
Injected flit rate average = 0.011
	minimum = 0.004 (at node 6)
	maximum = 0.02 (at node 2)
Accepted flit rate average= 0.010625
	minimum = 0.004 (at node 15)
	maximum = 0.018 (at node 3)
Injected packet length average = 1
Accepted packet length average = 1
Total in-flight flits = 3 (0 measured)
latency change    = 1
throughput change = 1
Class 0:
Packet latency average = 19.9048
	minimum = 7
	maximum = 37
Network latency average = 19.9048
	minimum = 7
	maximum = 37
Slowest packet = 6537
Flit latency average = 19.9048
	minimum = 7
	maximum = 37
Slowest flit = 6537
Fragmentation average = 0
	minimum = 0
	maximum = 0
Injected packet rate average = 0.0105
	minimum = 0.005 (at node 0)
	maximum = 0.016 (at node 2)
Accepted packet rate average = 0.0105
	minimum = 0.004 (at node 15)
	maximum = 0.016 (at node 13)
Injected flit rate average = 0.0105
	minimum = 0.005 (at node 0)
	maximum = 0.016 (at node 2)
Accepted flit rate average= 0.0105
	minimum = 0.004 (at node 15)
	maximum = 0.016 (at node 13)
Injected packet length average = 1
Accepted packet length average = 1
Total in-flight flits = 0 (0 measured)
latency change    = 0.0148325
throughput change = 0.0119048
Class 0:
Packet latency average = 18.9467
	minimum = 7
	maximum = 36
Network latency average = 18.9467
	minimum = 7
	maximum = 36
Slowest packet = 6733
Flit latency average = 18.9467
	minimum = 7
	maximum = 36
Slowest flit = 6733
Fragmentation average = 0
	minimum = 0
	maximum = 0
Injected packet rate average = 0.009625
	minimum = 0.004 (at node 0)
	maximum = 0.014 (at node 12)
Accepted packet rate average = 0.009375
	minimum = 0.002 (at node 9)
	maximum = 0.02 (at node 10)
Injected flit rate average = 0.009625
	minimum = 0.004 (at node 0)
	maximum = 0.014 (at node 12)
Accepted flit rate average= 0.009375
	minimum = 0.002 (at node 9)
	maximum = 0.02 (at node 10)
Injected packet length average = 1
Accepted packet length average = 1
Total in-flight flits = 2 (0 measured)
latency change    = 0.050568
throughput change = 0.12
Warmed up ...Time used is 1500 cycles
Class 0:
Packet latency average = 20.025
	minimum = 7
	maximum = 37
Network latency average = 20.025
	minimum = 7
	maximum = 37
Slowest packet = 6787
Flit latency average = 20.1341
	minimum = 7
	maximum = 37
Slowest flit = 6787
Fragmentation average = 0
	minimum = 0
	maximum = 0
Injected packet rate average = 0.0105
	minimum = 0.002 (at node 13)
	maximum = 0.016 (at node 4)
Accepted packet rate average = 0.01025
	minimum = 0.002 (at node 4)
	maximum = 0.018 (at node 3)
Injected flit rate average = 0.0105
	minimum = 0.002 (at node 13)
	maximum = 0.016 (at node 4)
Accepted flit rate average= 0.01025
	minimum = 0.002 (at node 4)
	maximum = 0.018 (at node 3)
Injected packet length average = 1
Accepted packet length average = 1
Total in-flight flits = 4 (4 measured)
latency change    = 0.0538494
throughput change = 0.0853659
Class 0:
Packet latency average = 20.2484
	minimum = 7
	maximum = 37
Network latency average = 20.2484
	minimum = 7
	maximum = 37
Slowest packet = 6787
Flit latency average = 20.3032
	minimum = 7
	maximum = 37
Slowest flit = 6787
Fragmentation average = 0
	minimum = 0
	maximum = 0
Injected packet rate average = 0.00975
	minimum = 0.005 (at node 13)
	maximum = 0.013 (at node 4)
Accepted packet rate average = 0.0096875
	minimum = 0.003 (at node 4)
	maximum = 0.016 (at node 3)
Injected flit rate average = 0.00975
	minimum = 0.005 (at node 13)
	maximum = 0.013 (at node 4)
Accepted flit rate average= 0.0096875
	minimum = 0.003 (at node 4)
	maximum = 0.016 (at node 3)
Injected packet length average = 1
Accepted packet length average = 1
Total in-flight flits = 3 (3 measured)
latency change    = 0.0110313
throughput change = 0.0580645
Class 0:
Packet latency average = 20.1909
	minimum = 7
	maximum = 37
Network latency average = 20.1909
	minimum = 7
	maximum = 37
Slowest packet = 6787
Flit latency average = 20.2263
	minimum = 7
	maximum = 37
Slowest flit = 6787
Fragmentation average = 0
	minimum = 0
	maximum = 0
Injected packet rate average = 0.0102083
	minimum = 0.00666667 (at node 2)
	maximum = 0.0153333 (at node 14)
Accepted packet rate average = 0.010125
	minimum = 0.00533333 (at node 5)
	maximum = 0.0166667 (at node 3)
Injected flit rate average = 0.0102083
	minimum = 0.00666667 (at node 2)
	maximum = 0.0153333 (at node 14)
Accepted flit rate average= 0.010125
	minimum = 0.00533333 (at node 5)
	maximum = 0.0166667 (at node 3)
Injected packet length average = 1
Accepted packet length average = 1
Total in-flight flits = 4 (4 measured)
latency change    = 0.00284756
throughput change = 0.0432099
Class 0:
Packet latency average = 20.3596
	minimum = 7
	maximum = 37
Network latency average = 20.3596
	minimum = 7
	maximum = 37
Slowest packet = 6787
Flit latency average = 20.3856
	minimum = 7
	maximum = 37
Slowest flit = 6787
Fragmentation average = 0
	minimum = 0
	maximum = 0
Injected packet rate average = 0.010125
	minimum = 0.008 (at node 9)
	maximum = 0.014 (at node 14)
Accepted packet rate average = 0.00996875
	minimum = 0.007 (at node 1)
	maximum = 0.0145 (at node 11)
Injected flit rate average = 0.010125
	minimum = 0.008 (at node 9)
	maximum = 0.014 (at node 14)
Accepted flit rate average= 0.00996875
	minimum = 0.007 (at node 1)
	maximum = 0.0145 (at node 11)
Injected packet length average = 1
Accepted packet length average = 1
Total in-flight flits = 7 (7 measured)
latency change    = 0.00828847
throughput change = 0.015674
Class 0:
Packet latency average = 20.3127
	minimum = 7
	maximum = 37
Network latency average = 20.3127
	minimum = 7
	maximum = 37
Slowest packet = 6787
Flit latency average = 20.3333
	minimum = 7
	maximum = 37
Slowest flit = 6787
Fragmentation average = 0
	minimum = 0
	maximum = 0
Injected packet rate average = 0.010075
	minimum = 0.0072 (at node 12)
	maximum = 0.0148 (at node 14)
Accepted packet rate average = 0.010125
	minimum = 0.0076 (at node 1)
	maximum = 0.014 (at node 11)
Injected flit rate average = 0.010075
	minimum = 0.0072 (at node 12)
	maximum = 0.0148 (at node 14)
Accepted flit rate average= 0.010125
	minimum = 0.0076 (at node 1)
	maximum = 0.014 (at node 11)
Injected packet length average = 1
Accepted packet length average = 1
Total in-flight flits = 0 (0 measured)
latency change    = 0.00231217
throughput change = 0.0154321
Draining all recorded packets ...
Draining remaining packets ...
Time taken is 4001 cycles
Class 0:
Packet latency average = 19.8889
	minimum = 7
	maximum = 37
Network latency average = 19.8889
	minimum = 7
	maximum = 37
Slowest packet = 7198
Flit latency average = 19.8889
	minimum = 7
	maximum = 37
Slowest flit = 7198
Fragmentation average = 0
	minimum = 0
	maximum = 0
Injected packet rate average = 0.01175
	minimum = 0.004 (at node 2)
	maximum = 0.02 (at node 3)
Accepted packet rate average = 0.01125
	minimum = 0.004 (at node 4)
	maximum = 0.022 (at node 1)
Injected flit rate average = 0.01175
	minimum = 0.004 (at node 2)
	maximum = 0.02 (at node 3)
Accepted flit rate average= 0.01125
	minimum = 0.004 (at node 4)
	maximum = 0.022 (at node 1)
Injected packet length average = 1
Accepted packet length average = 1
Total in-flight flits = 4 (0 measured)
latency change    = 1
throughput change = 1
Class 0:
Packet latency average = 19.4948
	minimum = 7
	maximum = 37
Network latency average = 19.4948
	minimum = 7
	maximum = 37
Slowest packet = 7198
Flit latency average = 19.4948
	minimum = 7
	maximum = 37
Slowest flit = 7198
Fragmentation average = 0
	minimum = 0
	maximum = 0
Injected packet rate average = 0.0123125
	minimum = 0.004 (at node 12)
	maximum = 0.021 (at node 15)
Accepted packet rate average = 0.012125
	minimum = 0.009 (at node 2)
	maximum = 0.018 (at node 15)
Injected flit rate average = 0.0123125
	minimum = 0.004 (at node 12)
	maximum = 0.021 (at node 15)
Accepted flit rate average= 0.012125
	minimum = 0.009 (at node 2)
	maximum = 0.018 (at node 15)
Injected packet length average = 1
Accepted packet length average = 1
Total in-flight flits = 3 (0 measured)
latency change    = 0.0202127
throughput change = 0.0721649
Class 0:
Packet latency average = 18.9747
	minimum = 7
	maximum = 37
Network latency average = 18.9747
	minimum = 7
	maximum = 37
Slowest packet = 7375
Flit latency average = 18.9747
	minimum = 7
	maximum = 37
Slowest flit = 7375
Fragmentation average = 0
	minimum = 0
	maximum = 0
Injected packet rate average = 0.009625
	minimum = 0.002 (at node 8)
	maximum = 0.018 (at node 7)
Accepted packet rate average = 0.009875
	minimum = 0.002 (at node 9)
	maximum = 0.02 (at node 11)
Injected flit rate average = 0.009625
[...]
Network latency average = 19.7551
	minimum = 7
	maximum = 37
Slowest packet = 30637
Flit latency average = 19.7551
	minimum = 7
	maximum = 37
Slowest flit = 30637
Fragmentation average = 0
	minimum = 0
	maximum = 0
Injected packet rate average = 0.0094375
	minimum = 0.003 (at node 2)
	maximum = 0.015 (at node 10)
Accepted packet rate average = 0.0091875
	minimum = 0.005 (at node 7)
	maximum = 0.013 (at node 0)
Injected flit rate average = 0.0094375
	minimum = 0.003 (at node 2)
	maximum = 0.015 (at node 10)
Accepted flit rate average= 0.0091875
	minimum = 0.005 (at node 7)
	maximum = 0.013 (at node 0)
Injected packet length average = 1
Accepted packet length average = 1
Total in-flight flits = 4 (0 measured)
latency change    = 0.0445506
throughput change = 0.0884354
Class 0:
Packet latency average = 20.1029
	minimum = 7
	maximum = 33
Network latency average = 20.1029
	minimum = 7
	maximum = 33
Slowest packet = 30712
Flit latency average = 20.1029
	minimum = 7
	maximum = 33
Slowest flit = 30712
Fragmentation average = 0
	minimum = 0
	maximum = 0
Injected packet rate average = 0.0085
	minimum = 0 (at node 8)
	maximum = 0.016 (at node 0)
Accepted packet rate average = 0.0085
	minimum = 0.002 (at node 2)
	maximum = 0.016 (at node 3)
Injected flit rate average = 0.0085
	minimum = 0 (at node 8)
	maximum = 0.016 (at node 0)
Accepted flit rate average= 0.0085
	minimum = 0.002 (at node 2)
	maximum = 0.016 (at node 3)
Injected packet length average = 1
Accepted packet length average = 1
Total in-flight flits = 4 (0 measured)
latency change    = 0.0173029
throughput change = 0.0808824
Warmed up ...Time used is 1500 cycles
Class 0:
Packet latency average = 20.2787
	minimum = 7
	maximum = 32
Network latency average = 20.2787
	minimum = 7
	maximum = 32
Slowest packet = 30773
Flit latency average = 20.3077
	minimum = 7
	maximum = 32
Slowest flit = 30753
Fragmentation average = 0
	minimum = 0
	maximum = 0
Injected packet rate average = 0.007875
	minimum = 0.002 (at node 3)
	maximum = 0.018 (at node 4)
Accepted packet rate average = 0.008125
	minimum = 0.002 (at node 0)
	maximum = 0.016 (at node 11)
Injected flit rate average = 0.007875
	minimum = 0.002 (at node 3)
	maximum = 0.018 (at node 4)
Accepted flit rate average= 0.008125
	minimum = 0.002 (at node 0)
	maximum = 0.016 (at node 11)
Injected packet length average = 1
Accepted packet length average = 1
Total in-flight flits = 2 (2 measured)
latency change    = 0.0086666
throughput change = 0.0461538
Class 0:
Packet latency average = 19.9
	minimum = 7
	maximum = 33
Network latency average = 19.9
	minimum = 7
	maximum = 33
Slowest packet = 30824
Flit latency average = 19.9236
	minimum = 7
	maximum = 33
Slowest flit = 30824
Fragmentation average = 0
	minimum = 0
	maximum = 0
Injected packet rate average = 0.0089375
	minimum = 0.004 (at node 3)
	maximum = 0.016 (at node 14)
Accepted packet rate average = 0.009
	minimum = 0.005 (at node 6)
	maximum = 0.013 (at node 13)
Injected flit rate average = 0.0089375
	minimum = 0.004 (at node 3)
	maximum = 0.016 (at node 14)
Accepted flit rate average= 0.009
	minimum = 0.005 (at node 6)
	maximum = 0.013 (at node 13)
Injected packet length average = 1
Accepted packet length average = 1
Total in-flight flits = 3 (3 measured)
latency change    = 0.0190296
throughput change = 0.0972222
Class 0:
Packet latency average = 19.9074
	minimum = 7
	maximum = 37
Network latency average = 19.9074
	minimum = 7
	maximum = 37
Slowest packet = 30955
Flit latency average = 19.9227
	minimum = 7
	maximum = 37
Slowest flit = 30955
Fragmentation average = 0
	minimum = 0
	maximum = 0
Injected packet rate average = 0.00904167
	minimum = 0.00533333 (at node 3)
	maximum = 0.0153333 (at node 14)
Accepted packet rate average = 0.00916667
	minimum = 0.006 (at node 5)
	maximum = 0.0106667 (at node 4)
Injected flit rate average = 0.00904167
	minimum = 0.00533333 (at node 3)
	maximum = 0.0153333 (at node 14)
Accepted flit rate average= 0.00916667
	minimum = 0.006 (at node 5)
	maximum = 0.0106667 (at node 4)
Injected packet length average = 1
Accepted packet length average = 1
Total in-flight flits = 1 (1 measured)
latency change    = 0.000372093
throughput change = 0.0181818
Class 0:
Packet latency average = 19.7361
	minimum = 7
	maximum = 37
Network latency average = 19.7361
	minimum = 7
	maximum = 37
Slowest packet = 30955
Flit latency average = 19.75
	minimum = 7
	maximum = 37
Slowest flit = 30955
Fragmentation average = 0
	minimum = 0
	maximum = 0
Injected packet rate average = 0.00909375
	minimum = 0.005 (at node 3)
	maximum = 0.013 (at node 2)
Accepted packet rate average = 0.009125
	minimum = 0.0065 (at node 5)
	maximum = 0.011 (at node 4)
Injected flit rate average = 0.00909375
	minimum = 0.005 (at node 3)
	maximum = 0.013 (at node 2)
Accepted flit rate average= 0.009125
	minimum = 0.0065 (at node 5)
	maximum = 0.011 (at node 4)
Injected packet length average = 1
Accepted packet length average = 1
Total in-flight flits = 3 (3 measured)
latency change    = 0.00867933
throughput change = 0.00456621
Class 0:
Packet latency average = 19.5288
	minimum = 7
	maximum = 37
Network latency average = 19.5288
	minimum = 7
	maximum = 37
Slowest packet = 30955
Flit latency average = 19.542
	minimum = 7
	maximum = 37
Slowest flit = 30955
Fragmentation average = 0
	minimum = 0
	maximum = 0
Injected packet rate average = 0.0092
	minimum = 0.0052 (at node 3)
	maximum = 0.0132 (at node 2)
Accepted packet rate average = 0.009225
	minimum = 0.0076 (at node 5)
	maximum = 0.0112 (at node 6)
Injected flit rate average = 0.0092
	minimum = 0.0052 (at node 3)
	maximum = 0.0132 (at node 2)
Accepted flit rate average= 0.009225
	minimum = 0.0076 (at node 5)
	maximum = 0.0112 (at node 6)
Injected packet length average = 1
Accepted packet length average = 1
Total in-flight flits = 3 (3 measured)
latency change    = 0.0106174
throughput change = 0.0108401
Draining all recorded packets ...
Draining remaining packets ...
Time taken is 4050 cycles
Class 0:
Packet latency average = 21.0405
	minimum = 7
	maximum = 33
Network latency average = 21.0405
	minimum = 7
	maximum = 33
Slowest packet = 31146
Flit latency average = 21.0405
	minimum = 7
	maximum = 33
Slowest flit = 31146
Fragmentation average = 0
	minimum = 0
	maximum = 0
Injected packet rate average = 0.009625
	minimum = 0.004 (at node 0)
	maximum = 0.02 (at node 8)
Accepted packet rate average = 0.00925
	minimum = 0 (at node 12)
	maximum = 0.022 (at node 1)
Injected flit rate average = 0.009625
	minimum = 0.004 (at node 0)
	maximum = 0.02 (at node 8)
Accepted flit rate average= 0.00925
	minimum = 0 (at node 12)
	maximum = 0.022 (at node 1)
Injected packet length average = 1
Accepted packet length average = 1
Total in-flight flits = 3 (0 measured)
latency change    = 1
throughput change = 1
Class 0:
Packet latency average = 20.1429
	minimum = 7
	maximum = 36
Network latency average = 20.1429
	minimum = 7
	maximum = 36
Slowest packet = 31268
Flit latency average = 20.1429
	minimum = 7
	maximum = 36
Slowest flit = 31268
Fragmentation average = 0
	minimum = 0
	maximum = 0
Injected packet rate average = 0.01025
	minimum = 0.006 (at node 5)
	maximum = 0.015 (at node 6)
Accepted packet rate average = 0.0100625
	minimum = 0.002 (at node 3)
	maximum = 0.018 (at node 1)
Injected flit rate average = 0.01025
	minimum = 0.006 (at node 5)
	maximum = 0.015 (at node 6)
Accepted flit rate average= 0.0100625
	minimum = 0.002 (at node 3)
	maximum = 0.018 (at node 1)
Injected packet length average = 1
Accepted packet length average = 1
Total in-flight flits = 3 (0 measured)
latency change    = 0.0445658
throughput change = 0.0807453
Class 0:
Packet latency average = 20.2391
	minimum = 7
	maximum = 37
Network latency average = 20.2391
	minimum = 7
	maximum = 37
Slowest packet = 31312
Flit latency average = 20.2391
	minimum = 7
	maximum = 37
Slowest flit = 31312
Fragmentation average = 0
	minimum = 0
	maximum = 0
Injected packet rate average = 0.011625
	minimum = 0.004 (at node 2)
	maximum = 0.022 (at node 10)
Accepted packet rate average = 0.0115
	minimum = 0.006 (at node 10)
	maximum = 0.018 (at node 7)
Injected flit rate average = 0.011625
	minimum = 0.004 (at node 2)
	maximum = 0.022 (at node 10)
Accepted flit rate average= 0.0115
	minimum = 0.006 (at node 10)
	maximum = 0.018 (at node 7)
Injected packet length average = 1
Accepted packet length average = 1
Total in-flight flits = 4 (0 measured)
latency change    = 0.00475679
throughput change = 0.125
Warmed up ...Time used is 1500 cycles
Class 0:
Packet latency average = 19.9403
	minimum = 7
	maximum = 32
Network latency average = 19.9403
	minimum = 7
	maximum = 32
Slowest packet = 31396
Flit latency average = 19.7042
	minimum = 7
	maximum = 32
Slowest flit = 31396
Fragmentation average = 0
	minimum = 0
	maximum = 0
Injected packet rate average = 0.008375
	minimum = 0.002 (at node 14)
	maximum = 0.016 (at node 3)
Accepted packet rate average = 0.008875
	minimum = 0.002 (at node 0)
	maximum = 0.018 (at node 12)
Injected flit rate average = 0.008375
	minimum = 0.002 (at node 14)
	maximum = 0.016 (at node 3)
Accepted flit rate average= 0.008875
	minimum = 0.002 (at node 0)
	maximum = 0.018 (at node 12)
Injected packet length average = 1
Accepted packet length average = 1
Total in-flight flits = 0 (0 measured)
latency change    = 0.0149863
throughput change = 0.295775
Class 0:
Packet latency average = 19.7434
	minimum = 7
	maximum = 37
Network latency average = 19.7434
	minimum = 7
	maximum = 37
Slowest packet = 31455
Flit latency average = 19.641
	minimum = 7
	maximum = 37
Slowest flit = 31455
Fragmentation average = 0
	minimum = 0
	maximum = 0
Injected packet rate average = 0.009625
	minimum = 0.004 (at node 12)
	maximum = 0.023 (at node 3)
Accepted packet rate average = 0.00975
	minimum = 0.004 (at node 6)
	maximum = 0.015 (at node 4)
Injected flit rate average = 0.009625
	minimum = 0.004 (at node 12)
	maximum = 0.023 (at node 3)
Accepted flit rate average= 0.00975
	minimum = 0.004 (at node 6)
	maximum = 0.015 (at node 4)
Injected packet length average = 1
Accepted packet length average = 1
Total in-flight flits = 2 (2 measured)
latency change    = 0.0099718
throughput change = 0.0897436
Class 0:
Packet latency average = 19.6926
	minimum = 7
	maximum = 37
Network latency average = 19.6926
	minimum = 7
	maximum = 37
Slowest packet = 31455
Flit latency average = 19.6255
	minimum = 7
	maximum = 37
Slowest flit = 31455
Fragmentation average = 0
	minimum = 0
	maximum = 0
Injected packet rate average = 0.00991667
	minimum = 0.006 (at node 9)
	maximum = 0.0186667 (at node 3)
Accepted packet rate average = 0.00979167
	minimum = 0.00466667 (at node 6)
	maximum = 0.0146667 (at node 1)
Injected flit rate average = 0.00991667
	minimum = 0.006 (at node 9)
	maximum = 0.0186667 (at node 3)
Accepted flit rate average= 0.00979167
	minimum = 0.00466667 (at node 6)
	maximum = 0.0146667 (at node 1)
Injected packet length average = 1
Accepted packet length average = 1
Total in-flight flits = 7 (7 measured)
latency change    = 0.00257865
throughput change = 0.00425532
Class 0:
Packet latency average = 19.5668
	minimum = 7
	maximum = 37
Network latency average = 19.5668
	minimum = 7
	maximum = 37
Slowest packet = 31455
Flit latency average = 19.5177
	minimum = 7
	maximum = 37
Slowest flit = 31455
Fragmentation average = 0
	minimum = 0
	maximum = 0
Injected packet rate average = 0.009625
	minimum = 0.0055 (at node 12)
	maximum = 0.0175 (at node 3)
Accepted packet rate average = 0.00971875
	minimum = 0.0045 (at node 6)
	maximum = 0.014 (at node 1)
Injected flit rate average = 0.009625
	minimum = 0.0055 (at node 12)
	maximum = 0.0175 (at node 3)
Accepted flit rate average= 0.00971875
	minimum = 0.0045 (at node 6)
	maximum = 0.014 (at node 1)
Injected packet length average = 1
Accepted packet length average = 1
Total in-flight flits = 1 (1 measured)
latency change    = 0.00643261
throughput change = 0.00750268
Class 0:
Packet latency average = 19.8286
	minimum = 7
	maximum = 37
Network latency average = 19.8286
	minimum = 7
	maximum = 37
Slowest packet = 31455
Flit latency average = 19.7866
	minimum = 7
	maximum = 37
Slowest flit = 31455
Fragmentation average = 0
	minimum = 0
	maximum = 0
Injected packet rate average = 0.009675
	minimum = 0.0064 (at node 12)
	maximum = 0.0156 (at node 3)
Accepted packet rate average = 0.009725
	minimum = 0.0052 (at node 6)
	maximum = 0.014 (at node 13)
Injected flit rate average = 0.009675
	minimum = 0.0064 (at node 12)
	maximum = 0.0156 (at node 3)
Accepted flit rate average= 0.009725
	minimum = 0.0052 (at node 6)
	maximum = 0.014 (at node 13)
Injected packet length average = 1
Accepted packet length average = 1
Total in-flight flits = 2 (2 measured)
latency change    = 0.013203
throughput change = 0.000642674
Draining all recorded packets ...
Draining remaining packets ...
Time taken is 4027 cycles
Class 0:
Packet latency average = 18.8382
	minimum = 7
	maximum = 32
Network latency average = 18.8382
	minimum = 7
	maximum = 32
Slowest packet = 31809
Flit latency average = 18.8382
	minimum = 7
	maximum = 32
Slowest flit = 31809
Fragmentation average = 0
	minimum = 0
	maximum = 0
Injected packet rate average = 0.00875
	minimum = 0.002 (at node 7)
	maximum = 0.016 (at node 5)
Accepted packet rate average = 0.0085
	minimum = 0.002 (at node 13)
	maximum = 0.018 (at node 0)
Injected flit rate average = 0.00875
	minimum = 0.002 (at node 7)
	maximum = 0.016 (at node 5)
Accepted flit rate average= 0.0085
	minimum = 0.002 (at node 13)
	maximum = 0.018 (at node 0)
Injected packet length average = 1
Accepted packet length average = 1
Total in-flight flits = 2 (0 measured)
latency change    = 1
throughput change = 1
Class 0:
Packet latency average = 19.8417
	minimum = 7
	maximum = 37
Network latency average = 19.8417
	minimum = 7
	maximum = 37
Slowest packet = 31861
Flit latency average = 19.8417
	minimum = 7
	maximum = 37
Slowest flit = 31861
Fragmentation average = 0
	minimum = 0
	maximum = 0
Injected packet rate average = 0.00875
	minimum = 0.002 (at node 1)
	maximum = 0.014 (at node 5)
Accepted packet rate average = 0.0086875
	minimum = 0.003 (at node 6)
	maximum = 0.013 (at node 0)
Injected flit rate average = 0.00875
	minimum = 0.002 (at node 1)
	maximum = 0.014 (at node 5)
Accepted flit rate average= 0.0086875
	minimum = 0.003 (at node 6)
	maximum = 0.013 (at node 0)
Injected packet length average = 1
Accepted packet length average = 1
Total in-flight flits = 1 (0 measured)
latency change    = 0.0505748
throughput change = 0.0215827
Class 0:
Packet latency average = 20.7639
	minimum = 7
	maximum = 37
Network latency average = 20.7639
	minimum = 7
	maximum = 37
Slowest packet = 31914
Flit latency average = 20.7639
	minimum = 7
	maximum = 37
Slowest flit = 31914
Fragmentation average = 0
	minimum = 0
	maximum = 0
Injected packet rate average = 0.009125
	minimum = 0.002 (at node 0)
	maximum = 0.018 (at node 10)
Accepted packet rate average = 0.009
	minimum = 0.002 (at node 0)
	maximum = 0.02 (at node 5)
Injected flit rate average = 0.009125
	minimum = 0.002 (at node 0)
	maximum = 0.018 (at node 10)
Accepted flit rate average= 0.009
	minimum = 0.002 (at node 0)
	maximum = 0.02 (at node 5)
Injected packet length average = 1
Accepted packet length average = 1
Total in-flight flits = 2 (0 measured)
latency change    = 0.0444118
throughput change = 0.0347222
Warmed up ...Time used is 1500 cycles
Class 0:
Packet latency average = 19.6027
	minimum = 7
	maximum = 32
Network latency average = 19.6027
	minimum = 7
	maximum = 32
Slowest packet = 31994
Flit latency average = 19.5333
	minimum = 7
	maximum = 32
Slowest flit = 31994
Fragmentation average = 0
	minimum = 0
	maximum = 0
Injected packet rate average = 0.009375
	minimum = 0.002 (at node 11)
	maximum = 0.014 (at node 0)
Accepted packet rate average = 0.009375
	minimum = 0.002 (at node 8)
	maximum = 0.016 (at node 5)
Injected flit rate average = 0.009375
	minimum = 0.002 (at node 11)
	maximum = 0.014 (at node 0)
Accepted flit rate average= 0.009375
	minimum = 0.002 (at node 8)
	maximum = 0.016 (at node 5)
Injected packet length average = 1
Accepted packet length average = 1
Total in-flight flits = 2 (2 measured)
latency change    = 0.059234
throughput change = 0.04
Class 0:
Packet latency average = 19.3467
	minimum = 7
	maximum = 38
Network latency average = 19.3467
	minimum = 7
	maximum = 38
Slowest packet = 32091
Flit latency average = 19.3158
	minimum = 7
	maximum = 38
Slowest flit = 32091
Fragmentation average = 0
	minimum = 0
	maximum = 0
Injected packet rate average = 0.009625
	minimum = 0.005 (at node 13)
	maximum = 0.013 (at node 10)
Accepted packet rate average = 0.0095
	minimum = 0.004 (at node 0)
	maximum = 0.016 (at node 11)
Injected flit rate average = 0.009625
	minimum = 0.005 (at node 13)
	maximum = 0.013 (at node 10)
Accepted flit rate average= 0.0095
	minimum = 0.004 (at node 0)
	maximum = 0.016 (at node 11)
Injected packet length average = 1
Accepted packet length average = 1
Total in-flight flits = 4 (4 measured)
latency change    = 0.013236
throughput change = 0.0131579
Class 0:
Packet latency average = 19.1205
	minimum = 7
	maximum = 38
Network latency average = 19.1205
	minimum = 7
	maximum = 38
Slowest packet = 32091
Flit latency average = 19.1018
	minimum = 7
	maximum = 38
Slowest flit = 32091
Fragmentation average = 0
	minimum = 0
	maximum = 0
Injected packet rate average = 0.00954167
	minimum = 0.00666667 (at node 11)
	maximum = 0.0126667 (at node 10)
Accepted packet rate average = 0.00941667
	minimum = 0.004 (at node 8)
	maximum = 0.0146667 (at node 11)
Injected flit rate average = 0.00954167
	minimum = 0.00666667 (at node 11)
	maximum = 0.0126667 (at node 10)
Accepted flit rate average= 0.00941667
	minimum = 0.004 (at node 8)
	maximum = 0.0146667 (at node 11)
Injected packet length average = 1
Accepted packet length average = 1
Total in-flight flits = 5 (5 measured)
latency change    = 0.0118266
throughput change = 0.00884956
Class 0:
Packet latency average = 19.4019
	minimum = 7
	maximum = 39
Network latency average = 19.4019
	minimum = 7
	maximum = 39
Slowest packet = 32290
Flit latency average = 19.3866
	minimum = 7
	maximum = 39
Slowest flit = 32290
Fragmentation average = 0
	minimum = 0
	maximum = 0
Injected packet rate average = 0.0098125
	minimum = 0.0065 (at node 1)
	maximum = 0.013 (at node 8)
Accepted packet rate average = 0.00978125
	minimum = 0.006 (at node 0)
	maximum = 0.0135 (at node 11)
Injected flit rate average = 0.0098125
	minimum = 0.0065 (at node 1)
	maximum = 0.013 (at node 8)
Accepted flit rate average= 0.00978125
	minimum = 0.006 (at node 0)
	maximum = 0.0135 (at node 11)
Injected packet length average = 1
Accepted packet length average = 1
Total in-flight flits = 3 (3 measured)
latency change    = 0.0145034
throughput change = 0.0372737
Draining all recorded packets ...
Draining remaining packets ...
Time taken is 3534 cycles
====== Overall Traffic Statistics ======
====== Traffic class 0 ======
Packet latency average = 19.729 (50 samples)
	minimum = 7 (50 samples)
	maximum = 39.34 (50 samples)
Network latency average = 19.729 (50 samples)
	minimum = 7 (50 samples)
	maximum = 39.34 (50 samples)
Flit latency average = 19.7504 (50 samples)
	minimum = 7 (50 samples)
	maximum = 39.34 (50 samples)
Fragmentation average = 0 (50 samples)
	minimum = 0 (50 samples)
	maximum = 0 (50 samples)
Injected packet rate average = 0.00994335 (50 samples)
	minimum = 0.00672876 (50 samples)
	maximum = 0.0137542 (50 samples)
Accepted packet rate average = 0.00994142 (50 samples)
	minimum = 0.00651952 (50 samples)
	maximum = 0.0136815 (50 samples)
Injected flit rate average = 0.00994335 (50 samples)
	minimum = 0.00672876 (50 samples)
	maximum = 0.0137542 (50 samples)
Accepted flit rate average = 0.00994142 (50 samples)
	minimum = 0.00651952 (50 samples)
	maximum = 0.0136815 (50 samples)
Injected packet size average = 1 (50 samples)
Accepted packet size average = 1 (50 samples)
Hops average = 3.53303 (50 samples)
Total run time 1.24605
