BEGIN Configuration File: /tmp/tmp15r9qjyd.cfg
topology = mesh;
k = 4;
n = 2;
routing_function = gnn_port_score_route_4x4_v4;
num_vcs = 4;
vc_buf_size = 4;
wait_for_tail_credit = 1;
vc_allocator = islip;
sw_allocator = islip;
alloc_iters = 1;
credit_delay = 2;
routing_delay = 1;
vc_alloc_delay = 1;
sw_alloc_delay = 1;
input_speedup = 2;
output_speedup = 1;
internal_speedup = 1.0;
traffic = transpose;
packet_size = 1;
sim_type = latency;
injection_rate = 0.05;
warmup_periods = 3;
sample_period = 500;
sim_count = 50;
seed = 0;
link_failures = 2;
fail_seed = 101;

END Configuration File: /tmp/tmp15r9qjyd.cfg
failure at node 14, channel 0 (1/2)
failure at node 12, channel 0 (2/2)
Class 0:
Packet latency average = 21.0601
	minimum = 7
	maximum = 55
Network latency average = 21.0601
	minimum = 7
	maximum = 55
Slowest packet = 243
Flit latency average = 21.0601
	minimum = 7
	maximum = 55
Slowest flit = 243
Fragmentation average = 0
	minimum = 0
	maximum = 0
Injected packet rate average = 0.049625
	minimum = 0.032 (at node 8)
	maximum = 0.064 (at node 13)
Accepted packet rate average = 0.047875
	minimum = 0.03 (at node 2)
	maximum = 0.062 (at node 4)
Injected flit rate average = 0.049625
	minimum = 0.032 (at node 8)
	maximum = 0.064 (at node 13)
Accepted flit rate average= 0.047875
	minimum = 0.03 (at node 2)
	maximum = 0.062 (at node 4)
Injected packet length average = 1
Accepted packet length average = 1
Total in-flight flits = 14 (0 measured)
latency change    = 1
throughput change = 1
Class 0:
Packet latency average = 20.8856
	minimum = 7
	maximum = 56
Network latency average = 20.8856
	minimum = 7
	maximum = 56
Slowest packet = 634
Flit latency average = 20.8856
	minimum = 7
	maximum = 56
Slowest flit = 634
Fragmentation average = 0
	minimum = 0
	maximum = 0
Injected packet rate average = 0.048875
	minimum = 0.041 (at node 5)
	maximum = 0.054 (at node 1)
Accepted packet rate average = 0.0480625
	minimum = 0.04 (at node 2)
	maximum = 0.054 (at node 4)
Injected flit rate average = 0.048875
	minimum = 0.041 (at node 5)
	maximum = 0.054 (at node 1)
Accepted flit rate average= 0.0480625
	minimum = 0.04 (at node 2)
	maximum = 0.054 (at node 4)
Injected packet length average = 1
Accepted packet length average = 1
Total in-flight flits = 13 (0 measured)
latency change    = 0.00835441
throughput change = 0.00390117
Class 0:
Packet latency average = 21.6366
	minimum = 7
	maximum = 74
Network latency average = 21.6366
	minimum = 7
	maximum = 74
Slowest packet = 1014
Flit latency average = 21.6366
	minimum = 7
	maximum = 74
Slowest flit = 1014
Fragmentation average = 0
	minimum = 0
	maximum = 0
Injected packet rate average = 0.05025
	minimum = 0.032 (at node 11)
	maximum = 0.064 (at node 12)
Accepted packet rate average = 0.0485
	minimum = 0.034 (at node 4)
	maximum = 0.064 (at node 0)
Injected flit rate average = 0.05025
	minimum = 0.032 (at node 11)
	maximum = 0.064 (at node 12)
Accepted flit rate average= 0.0485
	minimum = 0.034 (at node 4)
	maximum = 0.064 (at node 0)
Injected packet length average = 1
Accepted packet length average = 1
Total in-flight flits = 27 (0 measured)
latency change    = 0.0347112
throughput change = 0.00902062
Warmed up ...Time used is 1500 cycles
Class 0:
Packet latency average = 21.6503
	minimum = 7
	maximum = 85
Network latency average = 21.6503
	minimum = 7
	maximum = 85
Slowest packet = 1506
Flit latency average = 22.3664
	minimum = 7
	maximum = 85
Slowest flit = 1506
Fragmentation average = 0
	minimum = 0
	maximum = 0
Injected packet rate average = 0.048375
	minimum = 0.036 (at node 8)
	maximum = 0.066 (at node 13)
Accepted packet rate average = 0.049125
	minimum = 0.038 (at node 2)
	maximum = 0.068 (at node 3)
Injected flit rate average = 0.048375
	minimum = 0.036 (at node 8)
	maximum = 0.066 (at node 13)
Accepted flit rate average= 0.049125
	minimum = 0.038 (at node 2)
	maximum = 0.068 (at node 3)
Injected packet length average = 1
Accepted packet length average = 1
Total in-flight flits = 22 (22 measured)
latency change    = 0.000631645
throughput change = 0.0127226
Class 0:
Packet latency average = 22.6101
	minimum = 7
	maximum = 113
Network latency average = 22.3544
	minimum = 7
	maximum = 113
Slowest packet = 1857
Flit latency average = 22.6756
	minimum = 7
	maximum = 113
Slowest flit = 1857
Fragmentation average = 0
	minimum = 0
	maximum = 0
Injected packet rate average = 0.0505625
	minimum = 0.04 (at node 8)
	maximum = 0.066 (at node 13)
Accepted packet rate average = 0.0510625
	minimum = 0.041 (at node 2)
	maximum = 0.062 (at node 7)
Injected flit rate average = 0.0505625
	minimum = 0.04 (at node 8)
	maximum = 0.066 (at node 13)
Accepted flit rate average= 0.0510625
	minimum = 0.041 (at node 2)
	maximum = 0.062 (at node 7)
Injected packet length average = 1
Accepted packet length average = 1
Total in-flight flits = 19 (19 measured)
latency change    = 0.0424524
throughput change = 0.0379437
Class 0:
Packet latency average = 22.6753
	minimum = 7
	maximum = 145
Network latency average = 22.3724
	minimum = 7
	maximum = 128
Slowest packet = 1871
Flit latency average = 22.5867
	minimum = 7
	maximum = 128
Slowest flit = 1871
Fragmentation average = 0
	minimum = 0
	maximum = 0
Injected packet rate average = 0.0507083
	minimum = 0.0433333 (at node 8)
	maximum = 0.0573333 (at node 13)
Accepted packet rate average = 0.0509167
	minimum = 0.042 (at node 2)
	maximum = 0.058 (at node 7)
Injected flit rate average = 0.0507083
	minimum = 0.0433333 (at node 8)
	maximum = 0.0573333 (at node 13)
Accepted flit rate average= 0.0509167
	minimum = 0.042 (at node 2)
	maximum = 0.058 (at node 7)
Injected packet length average = 1
Accepted packet length average = 1
Total in-flight flits = 22 (22 measured)
latency change    = 0.00287481
throughput change = 0.00286416
Draining all recorded packets ...
Draining remaining packets ...
Time taken is 3115 cycles
Class 0:
Packet latency average = 21.0027
	minimum = 7
	maximum = 68
Network latency average = 21.0027
	minimum = 7
	maximum = 68
Slowest packet = 2602
Flit latency average = 21.0027
	minimum = 7
	maximum = 68
Slowest flit = 2602
Fragmentation average = 0
	minimum = 0
	maximum = 0
Injected packet rate average = 0.0495
	minimum = 0.04 (at node 0)
	maximum = 0.066 (at node 15)
Accepted packet rate average = 0.046375
	minimum = 0.038 (at node 3)
	maximum = 0.066 (at node 15)
Injected flit rate average = 0.0495
	minimum = 0.04 (at node 0)
	maximum = 0.066 (at node 15)
Accepted flit rate average= 0.046375
	minimum = 0.038 (at node 3)
	maximum = 0.066 (at node 15)
Injected packet length average = 1
Accepted packet length average = 1
Total in-flight flits = 25 (0 measured)
latency change    = 1
throughput change = 1
Class 0:
Packet latency average = 20.9733
	minimum = 7
	maximum = 68
Network latency average = 20.9733
	minimum = 7
	maximum = 68
Slowest packet = 2602
Flit latency average = 20.9733
	minimum = 7
	maximum = 68
Slowest flit = 2602
Fragmentation average = 0
	minimum = 0
	maximum = 0
Injected packet rate average = 0.0475625
	minimum = 0.034 (at node 0)
	maximum = 0.06 (at node 15)
Accepted packet rate average = 0.04675
	minimum = 0.034 (at node 0)
	maximum = 0.059 (at node 15)
Injected flit rate average = 0.0475625
	minimum = 0.034 (at node 0)
	maximum = 0.06 (at node 15)
Accepted flit rate average= 0.04675
	minimum = 0.034 (at node 0)
	maximum = 0.059 (at node 15)
Injected packet length average = 1
Accepted packet length average = 1
Total in-flight flits = 13 (0 measured)
latency change    = 0.00140338
throughput change = 0.00802139
Class 0:
Packet latency average = 21.0652
	minimum = 7
	maximum = 81
Network latency average = 21.0652
	minimum = 7
	maximum = 81
Slowest packet = 3483
Flit latency average = 21.0652
	minimum = 7
	maximum = 81
Slowest flit = 3483
Fragmentation average = 0
	minimum = 0
	maximum = 0
Injected packet rate average = 0.04575
	minimum = 0.032 (at node 7)
	maximum = 0.062 (at node 10)
Accepted packet rate average = 0.046
	minimum = 0.036 (at node 13)
	maximum = 0.062 (at node 10)
Injected flit rate average = 0.04575
	minimum = 0.032 (at node 7)
	maximum = 0.062 (at node 10)
Accepted flit rate average= 0.046
	minimum = 0.036 (at node 13)
	maximum = 0.062 (at node 10)
Injected packet length average = 1
Accepted packet length average = 1
Total in-flight flits = 11 (0 measured)
latency change    = 0.00436527
throughput change = 0.0163043
Warmed up ...Time used is 1500 cycles
Class 0:
Packet latency average = 20.1922
	minimum = 7
	maximum = 60
Network latency average = 20.1922
	minimum = 7
	maximum = 60
Slowest packet = 3756
Flit latency average = 20.3939
	minimum = 7
	maximum = 60
Slowest flit = 3756
Fragmentation average = 0
	minimum = 0
	maximum = 0
Injected packet rate average = 0.05025
	minimum = 0.036 (at node 0)
	maximum = 0.066 (at node 9)
Accepted packet rate average = 0.0495
	minimum = 0.032 (at node 7)
	maximum = 0.064 (at node 6)
Injected flit rate average = 0.05025
	minimum = 0.036 (at node 0)
	maximum = 0.066 (at node 9)
Accepted flit rate average= 0.0495
	minimum = 0.032 (at node 7)
	maximum = 0.064 (at node 6)
Injected packet length average = 1
Accepted packet length average = 1
Total in-flight flits = 17 (17 measured)
latency change    = 0.043235
throughput change = 0.0707071
Class 0:
Packet latency average = 19.9676
	minimum = 7
	maximum = 60
Network latency average = 19.9676
	minimum = 7
	maximum = 60
Slowest packet = 3756
Flit latency average = 20.0728
	minimum = 7
	maximum = 60
Slowest flit = 3756
Fragmentation average = 0
	minimum = 0
	maximum = 0
Injected packet rate average = 0.04925
	minimum = 0.039 (at node 8)
	maximum = 0.061 (at node 5)
Accepted packet rate average = 0.0489375
	minimum = 0.038 (at node 2)
	maximum = 0.059 (at node 5)
Injected flit rate average = 0.04925
	minimum = 0.039 (at node 8)
	maximum = 0.061 (at node 5)
Accepted flit rate average= 0.0489375
	minimum = 0.038 (at node 2)
	maximum = 0.059 (at node 5)
Injected packet length average = 1
Accepted packet length average = 1
Total in-flight flits = 16 (16 measured)
latency change    = 0.0112478
throughput change = 0.0114943
Class 0:
Packet latency average = 20.8155
	minimum = 7
	maximum = 79
Network latency average = 20.8155
	minimum = 7
	maximum = 79
Slowest packet = 4594
Flit latency average = 20.8779
	minimum = 7
	maximum = 79
Slowest flit = 4594
Fragmentation average = 0
	minimum = 0
	maximum = 0
Injected packet rate average = 0.0490833
	minimum = 0.0386667 (at node 6)
	maximum = 0.0593333 (at node 15)
Accepted packet rate average = 0.0487917
	minimum = 0.0386667 (at node 9)
	maximum = 0.0593333 (at node 15)
Injected flit rate average = 0.0490833
	minimum = 0.0386667 (at node 6)
	maximum = 0.0593333 (at node 15)
Accepted flit rate average= 0.0487917
	minimum = 0.0386667 (at node 9)
	maximum = 0.0593333 (at node 15)
Injected packet length average = 1
Accepted packet length average = 1
Total in-flight flits = 18 (18 measured)
latency change    = 0.0407341
throughput change = 0.0029889
Class 0:
Packet latency average = 20.975
	minimum = 7
	maximum = 79
Network latency average = 20.975
	minimum = 7
	maximum = 79
Slowest packet = 4594
Flit latency average = 21.0193
	minimum = 7
	maximum = 79
Slowest flit = 4594
Fragmentation average = 0
	minimum = 0
	maximum = 0
Injected packet rate average = 0.0506875
	minimum = 0.0415 (at node 8)
	maximum = 0.058 (at node 12)
Accepted packet rate average = 0.05025
	minimum = 0.0415 (at node 2)
	maximum = 0.057 (at node 3)
Injected flit rate average = 0.0506875
	minimum = 0.0415 (at node 8)
	maximum = 0.058 (at node 12)
Accepted flit rate average= 0.05025
	minimum = 0.0415 (at node 2)
	maximum = 0.057 (at node 3)
Injected packet length average = 1
Accepted packet length average = 1
Total in-flight flits = 25 (25 measured)
latency change    = 0.00760125
throughput change = 0.0290216
Draining all recorded packets ...
Draining remaining packets ...
Time taken is 3576 cycles
Class 0:
Packet latency average = 22.3457
	minimum = 7
	maximum = 87
Network latency average = 22.3457
	minimum = 7
	maximum = 87
Slowest packet = 5435
Flit latency average = 22.3457
	minimum = 7
	maximum = 87
Slowest flit = 5435
Fragmentation average = 0
	minimum = 0
	maximum = 0
Injected packet rate average = 0.046625
	minimum = 0.034 (at node 12)
	maximum = 0.07 (at node 13)
Accepted packet rate average = 0.04375
	minimum = 0.028 (at node 3)
	maximum = 0.062 (at node 7)
Injected flit rate average = 0.046625
	minimum = 0.034 (at node 12)
	maximum = 0.07 (at node 13)
Accepted flit rate average= 0.04375
	minimum = 0.028 (at node 3)
	maximum = 0.062 (at node 7)
Injected packet length average = 1
Accepted packet length average = 1
Total in-flight flits = 23 (0 measured)
latency change    = 1
throughput change = 1
Class 0:
Packet latency average = 22.0556
	minimum = 7
	maximum = 94
Network latency average = 22.0556
	minimum = 7
	maximum = 94
Slowest packet = 5563
Flit latency average = 22.0556
	minimum = 7
	maximum = 94
Slowest flit = 5563
Fragmentation average = 0
	minimum = 0
	maximum = 0
Injected packet rate average = 0.049875
	minimum = 0.036 (at node 12)
	maximum = 0.064 (at node 13)
Accepted packet rate average = 0.048375
	minimum = 0.035 (at node 3)
	maximum = 0.061 (at node 9)
Injected flit rate average = 0.049875
	minimum = 0.036 (at node 12)
	maximum = 0.064 (at node 13)
Accepted flit rate average= 0.048375
	minimum = 0.035 (at node 3)
	maximum = 0.061 (at node 9)
Injected packet length average = 1
Accepted packet length average = 1
Total in-flight flits = 24 (0 measured)
latency change    = 0.0131558
throughput change = 0.0956072
Class 0:
Packet latency average = 22.8367
	minimum = 7
	maximum = 102
Network latency average = 22.8367
	minimum = 7
	maximum = 102
Slowest packet = 6032
Flit latency average = 22.8367
	minimum = 7
	maximum = 102
Slowest flit = 6032
Fragmentation average = 0
	minimum = 0
	maximum = 0
Injected packet rate average = 0.047
	minimum = 0.032 (at node 10)
	maximum = 0.058 (at node 3)
Accepted packet rate average = 0.049
	minimum = 0.034 (at node 10)
	maximum = 0.062 (at node 12)
Injected flit rate average = 0.047
	minimum = 0.032 (at node 10)
	maximum = 0.058 (at node 3)
Accepted flit rate average= 0.049
	minimum = 0.034 (at node 10)
	maximum = 0.062 (at node 12)
Injected packet length average = 1
Accepted packet length average = 1
Total in-flight flits = 8 (0 measured)
latency change    = 0.0342071
throughput change = 0.0127551
Warmed up ...Time used is 1500 cycles
Class 0:
Packet latency average = 20.345
	minimum = 7
	maximum = 57
Network latency average = 20.345
	minimum = 7
	maximum = 57
Slowest packet = 6520
Flit latency average = 20.3456
	minimum = 7
	maximum = 57
Slowest flit = 6520
Fragmentation average = 0
	minimum = 0
	maximum = 0
Injected packet rate average = 0.053125
	minimum = 0.036 (at node 13)
	maximum = 0.07 (at node 1)
Accepted packet rate average = 0.051
	minimum = 0.036 (at node 7)
	maximum = 0.068 (at node 4)
Injected flit rate average = 0.053125
	minimum = 0.036 (at node 13)
	maximum = 0.07 (at node 1)
Accepted flit rate average= 0.051
	minimum = 0.036 (at node 7)
	maximum = 0.068 (at node 4)
Injected packet length average = 1
Accepted packet length average = 1
Total in-flight flits = 25 (25 measured)
latency change    = 0.122474
throughput change = 0.0392157
Class 0:
Packet latency average = 21.2255
	minimum = 7
	maximum = 67
Network latency average = 21.2255
	minimum = 7
	maximum = 67
Slowest packet = 7081
Flit latency average = 21.2172
	minimum = 7
	maximum = 67
Slowest flit = 7081
Fragmentation average = 0
	minimum = 0
	maximum = 0
Injected packet rate average = 0.0524375
	minimum = 0.041 (at node 13)
	maximum = 0.064 (at node 6)
Accepted packet rate average = 0.0515
	minimum = 0.039 (at node 7)
	maximum = 0.064 (at node 9)
Injected flit rate average = 0.0524375
	minimum = 0.041 (at node 13)
	maximum = 0.064 (at node 6)
Accepted flit rate average= 0.0515
	minimum = 0.039 (at node 7)
	maximum = 0.064 (at node 9)
Injected packet length average = 1
Accepted packet length average = 1
Total in-flight flits = 23 (23 measured)
latency change    = 0.0414827
throughput change = 0.00970874
Class 0:
Packet latency average = 21.3008
	minimum = 7
	maximum = 102
Network latency average = 21.3008
	minimum = 7
	maximum = 102
Slowest packet = 7396
Flit latency average = 21.2946
	minimum = 7
	maximum = 102
Slowest flit = 7396
Fragmentation average = 0
	minimum = 0
	maximum = 0
Injected packet rate average = 0.0506667
	minimum = 0.0386667 (at node 13)
	maximum = 0.0586667 (at node 15)
Accepted packet rate average = 0.0502083
	minimum = 0.0393333 (at node 7)
	maximum = 0.0593333 (at node 15)
Injected flit rate average = 0.0506667
	minimum = 0.0386667 (at node 13)
	maximum = 0.0586667 (at node 15)
Accepted flit rate average= 0.0502083
	minimum = 0.0393333 (at node 7)
	maximum = 0.0593333 (at node 15)
Injected packet length average = 1
Accepted packet length average = 1
Total in-flight flits = 19 (19 measured)
latency change    = 0.00353329
throughput change = 0.0257261
Class 0:
Packet latency average = 21.2014
	minimum = 7
	maximum = 102
Network latency average = 21.2014
	minimum = 7
	maximum = 102
Slowest packet = 7396
Flit latency average = 21.1972
	minimum = 7
	maximum = 102
Slowest flit = 7396
Fragmentation average = 0
	minimum = 0
	maximum = 0
Injected packet rate average = 0.0496875
	minimum = 0.0405 (at node 13)
	maximum = 0.055 (at node 15)
Accepted packet rate average = 0.0492812
	minimum = 0.04 (at node 7)
	maximum = 0.0555 (at node 15)
Injected flit rate average = 0.0496875
	minimum = 0.0405 (at node 13)
	maximum = 0.055 (at node 15)
Accepted flit rate average= 0.0492812
	minimum = 0.04 (at node 7)
	maximum = 0.0555 (at node 15)
Injected packet length average = 1
Accepted packet length average = 1
Total in-flight flits = 21 (21 measured)
latency change    = 0.004686
throughput change = 0.0188121
Draining all recorded packets ...
Draining remaining packets ...
Time taken is 3607 cycles
Class 0:
Packet latency average = 19.8924
	minimum = 7
	maximum = 48
Network latency average = 19.8924
	minimum = 7
	maximum = 48
Slowest packet = 8115
Flit latency average = 19.8924
	minimum = 7
	maximum = 48
Slowest flit = 8115
Fragmentation average = 0
	minimum = 0
	maximum = 0
Injected packet rate average = 0.04875
	minimum = 0.032 (at node 1)
	maximum = 0.064 (at node 11)
Accepted packet rate average = 0.047625
	minimum = 0.032 (at node 4)
	maximum = 0.062 (at node 14)
Injected flit rate average = 0.04875
	minimum = 0.032 (at node 1)
	maximum = 0.064 (at node 11)
Accepted flit rate average= 0.047625
	minimum = 0.032 (at node 4)
	maximum = 0.062 (at node 14)
Injected packet length average = 1
Accepted packet length average = 1
Total in-flight flits = 9 (0 measured)
latency change    = 1
throughput change = 1
Class 0:
Packet latency average = 20.7676
	minimum = 7
	maximum = 87
Network latency average = 20.7676
	minimum = 7
	maximum = 87
Slowest packet = 8709
Flit latency average = 20.7676
	minimum = 7
	maximum = 87
Slowest flit = 8709
Fragmentation average = 0
	minimum = 0
	maximum = 0
Injected packet rate average = 0.0488125
	minimum = 0.038 (at node 3)
	maximum = 0.057 (at node 4)
Accepted packet rate average = 0.047875
	minimum = 0.036 (at node 12)
	maximum = 0.056 (at node 6)
Injected flit rate average = 0.0488125
	minimum = 0.038 (at node 3)
	maximum = 0.057 (at node 4)
Accepted flit rate average= 0.047875
	minimum = 0.036 (at node 12)
	maximum = 0.056 (at node 6)
Injected packet length average = 1
Accepted packet length average = 1
Total in-flight flits = 15 (0 measured)
latency change    = 0.0421442
throughput change = 0.00522193
Class 0:
Packet latency average = 23.27
	minimum = 7
	maximum = 84
Network latency average = 23.27
	minimum = 7
	maximum = 84
Slowest packet = 8939
Flit latency average = 23.27
	minimum = 7
	maximum = 84
Slowest flit = 8939
Fragmentation average = 0
	minimum = 0
	maximum = 0
Injected packet rate average = 0.052625
	minimum = 0.036 (at node 3)
	maximum = 0.078 (at node 12)
Accepted packet rate average = 0.05325
	minimum = 0.038 (at node 11)
	maximum = 0.076 (at node 3)
Injected flit rate average = 0.052625
	minimum = 0.036 (at node 3)
	maximum = 0.078 (at node 12)
Accepted flit rate average= 0.05325
	minimum = 0.038 (at node 11)
	maximum = 0.076 (at node 3)
Injected packet length average = 1
Accepted packet length average = 1
Total in-flight flits = 10 (0 measured)
latency change    = 0.107535
throughput change = 0.100939
Warmed up ...Time used is 1500 cycles
Class 0:
Packet latency average = 21.6471
	minimum = 7
	maximum = 76
Network latency average = 21.6471
	minimum = 7
	maximum = 76
Slowest packet = 9541
Flit latency average = 21.8803
	minimum = 7
	maximum = 76
Slowest flit = 9541
Fragmentation average = 0
	minimum = 0
	maximum = 0
Injected packet rate average = 0.051
	minimum = 0.032 (at node 9)
	maximum = 0.07 (at node 0)
Accepted packet rate average = 0.050125
	minimum = 0.032 (at node 6)
	maximum = 0.07 (at node 0)
Injected flit rate average = 0.051
	minimum = 0.032 (at node 9)
	maximum = 0.07 (at node 0)
Accepted flit rate average= 0.050125
	minimum = 0.032 (at node 6)
	maximum = 0.07 (at node 0)
Injected packet length average = 1
Accepted packet length average = 1
Total in-flight flits = 17 (17 measured)
latency change    = 0.0749707
throughput change = 0.0623441
Class 0:
Packet latency average = 21.6784
	minimum = 7
	maximum = 76
Network latency average = 21.6784
	minimum = 7
	maximum = 76
Slowest packet = 9541
Flit latency average = 21.7902
	minimum = 7
	maximum = 76
Slowest flit = 9541
Fragmentation average = 0
	minimum = 0
	maximum = 0
Injected packet rate average = 0.052125
	minimum = 0.041 (at node 14)
	maximum = 0.062 (at node 0)
Accepted packet rate average = 0.052125
	minimum = 0.041 (at node 11)
	maximum = 0.062 (at node 0)
Injected flit rate average = 0.052125
	minimum = 0.041 (at node 14)
	maximum = 0.062 (at node 0)
Accepted flit rate average= 0.052125
	minimum = 0.041 (at node 11)
	maximum = 0.062 (at node 0)
Injected packet length average = 1
Accepted packet length average = 1
Total in-flight flits = 10 (10 measured)
latency change    = 0.00144564
throughput change = 0.0383693
Class 0:
Packet latency average = 21.3982
	minimum = 7
	maximum = 80
Network latency average = 21.3982
	minimum = 7
	maximum = 80
Slowest packet = 10126
Flit latency average = 21.4749
	minimum = 7
	maximum = 80
Slowest flit = 10126
Fragmentation average = 0
	minimum = 0
	maximum = 0
Injected packet rate average = 0.0525
	minimum = 0.0433333 (at node 14)
	maximum = 0.0586667 (at node 0)
Accepted packet rate average = 0.0522083
	minimum = 0.0426667 (at node 11)
	maximum = 0.0593333 (at node 8)
Injected flit rate average = 0.0525
	minimum = 0.0433333 (at node 14)
	maximum = 0.0586667 (at node 0)
Accepted flit rate average= 0.0522083
	minimum = 0.0426667 (at node 11)
	maximum = 0.0593333 (at node 8)
Injected packet length average = 1
Accepted packet length average = 1
Total in-flight flits = 17 (17 measured)
latency change    = 0.013093
throughput change = 0.00159617
Class 0:
Packet latency average = 21.6125
	minimum = 7
	maximum = 98
Network latency average = 21.6077
	minimum = 7
	maximum = 94
Slowest packet = 10839
Flit latency average = 21.6631
	minimum = 7
	maximum = 94
Slowest flit = 10839
Fragmentation average = 0
	minimum = 0
	maximum = 0
Injected packet rate average = 0.0530313
	minimum = 0.043 (at node 14)
	maximum = 0.0625 (at node 10)
Accepted packet rate average = 0.0529688
	minimum = 0.043 (at node 11)
	maximum = 0.0625 (at node 10)
Injected flit rate average = 0.0530313
	minimum = 0.043 (at node 14)
	maximum = 0.0625 (at node 10)
Accepted flit rate average= 0.0529688
	minimum = 0.043 (at node 11)
	maximum = 0.0625 (at node 10)
Injected packet length average = 1
Accepted packet length average = 1
Total in-flight flits = 12 (12 measured)
latency change    = 0.00991247
throughput change = 0.0143559
Draining all recorded packets ...
Draining remaining packets ...
Time taken is 3565 cycles
Class 0:
Packet latency average = 22.1634
	minimum = 7
	maximum = 72
Network latency average = 22.139
	minimum = 7
	maximum = 72
Slowest packet = 11066
Flit latency average = 22.139
	minimum = 7
	maximum = 72
Slowest flit = 11066
Fragmentation average = 0
	minimum = 0
	maximum = 0
Injected packet rate average = 0.05325
	minimum = 0.034 (at node 3)
	maximum = 0.08 (at node 11)
Accepted packet rate average = 0.05125
	minimum = 0.032 (at node 12)
	maximum = 0.08 (at node 14)
Injected flit rate average = 0.05325
	minimum = 0.034 (at node 3)
	maximum = 0.08 (at node 11)
Accepted flit rate average= 0.05125
	minimum = 0.032 (at node 12)
	maximum = 0.08 (at node 14)
Injected packet length average = 1
Accepted packet length average = 1
Total in-flight flits = 16 (0 measured)
latency change    = 1
throughput change = 1
Class 0:
Packet latency average = 21.8172
	minimum = 7
	maximum = 72
Network latency average = 21.8045
	minimum = 7
	maximum = 72
Slowest packet = 11066
Flit latency average = 21.8045
	minimum = 7
	maximum = 72
Slowest flit = 11066
Fragmentation average = 0
	minimum = 0
	maximum = 0
Injected packet rate average = 0.050375
	minimum = 0.038 (at node 6)
	maximum = 0.066 (at node 11)
Accepted packet rate average = 0.0495625
	minimum = 0.038 (at node 9)
	maximum = 0.064 (at node 14)
Injected flit rate average = 0.050375
	minimum = 0.038 (at node 6)
	maximum = 0.066 (at node 11)
Accepted flit rate average= 0.0495625
	minimum = 0.038 (at node 9)
	maximum = 0.064 (at node 14)
Injected packet length average = 1
Accepted packet length average = 1
Total in-flight flits = 13 (0 measured)
latency change    = 0.0158712
throughput change = 0.0340479
Class 0:
Packet latency average = 20.6692
	minimum = 7
	maximum = 65
Network latency average = 20.6541
	minimum = 7
	maximum = 65
Slowest packet = 11877
Flit latency average = 20.6541
	minimum = 7
	maximum = 65
Slowest flit = 11877
Fragmentation average = 0
	minimum = 0
	maximum = 0
Injected packet rate average = 0.04975
	minimum = 0.036 (at node 6)
	maximum = 0.062 (at node 2)
Accepted packet rate average = 0.049875
	minimum = 0.036 (at node 9)
	maximum = 0.062 (at node 14)
Injected flit rate average = 0.04975
	minimum = 0.036 (at node 6)
	maximum = 0.062 (at node 2)
Accepted flit rate average= 0.049875
	minimum = 0.036 (at node 9)
	maximum = 0.062 (at node 14)
Injected packet length average = 1
Accepted packet length average = 1
Total in-flight flits = 12 (0 measured)
latency change    = 0.0555405
throughput change = 0.00626566
Warmed up ...Time used is 1500 cycles
Class 0:
Packet latency average = 20.0469
	minimum = 7
	maximum = 60
Network latency average = 20.0469
	minimum = 7
	maximum = 60
Slowest packet = 12301
Flit latency average = 20.0985
	minimum = 7
	maximum = 60
Slowest flit = 12301
Fragmentation average = 0
	minimum = 0
	maximum = 0
Injected packet rate average = 0.049625
	minimum = 0.034 (at node 4)
	maximum = 0.068 (at node 15)
Accepted packet rate average = 0.0495
	minimum = 0.036 (at node 1)
	maximum = 0.066 (at node 15)
Injected flit rate average = 0.049625
	minimum = 0.034 (at node 4)
	maximum = 0.068 (at node 15)
Accepted flit rate average= 0.0495
	minimum = 0.036 (at node 1)
	maximum = 0.066 (at node 15)
Injected packet length average = 1
Accepted packet length average = 1
Total in-flight flits = 13 (13 measured)
latency change    = 0.0310421
throughput change = 0.00757576
Class 0:
Packet latency average = 20.6994
	minimum = 7
	maximum = 73
Network latency average = 20.6994
	minimum = 7
	maximum = 73
Slowest packet = 12902
Flit latency average = 20.7152
	minimum = 7
	maximum = 73
Slowest flit = 12902
Fragmentation average = 0
	minimum = 0
	maximum = 0
Injected packet rate average = 0.0504375
	minimum = 0.036 (at node 0)
	maximum = 0.062 (at node 15)
Accepted packet rate average = 0.0498125
	minimum = 0.036 (at node 0)
	maximum = 0.061 (at node 11)
Injected flit rate average = 0.0504375
	minimum = 0.036 (at node 0)
	maximum = 0.062 (at node 15)
Accepted flit rate average= 0.0498125
	minimum = 0.036 (at node 0)
	maximum = 0.061 (at node 11)
Injected packet length average = 1
Accepted packet length average = 1
Total in-flight flits = 22 (22 measured)
latency change    = 0.0315221
throughput change = 0.00627353
Class 0:
Packet latency average = 20.2428
	minimum = 7
	maximum = 73
Network latency average = 20.2428
	minimum = 7
	maximum = 73
Slowest packet = 12902
Flit latency average = 20.2584
	minimum = 7
	maximum = 73
Slowest flit = 12902
Fragmentation average = 0
	minimum = 0
	maximum = 0
Injected packet rate average = 0.0484583
	minimum = 0.036 (at node 7)
	maximum = 0.06 (at node 15)
Accepted packet rate average = 0.048375
	minimum = 0.0366667 (at node 13)
	maximum = 0.06 (at node 15)
Injected flit rate average = 0.0484583
	minimum = 0.036 (at node 7)
	maximum = 0.06 (at node 15)
Accepted flit rate average= 0.048375
	minimum = 0.0366667 (at node 13)
	maximum = 0.06 (at node 15)
Injected packet length average = 1
Accepted packet length average = 1
Total in-flight flits = 14 (14 measured)
latency change    = 0.0225533
throughput change = 0.0297158
Draining all recorded packets ...
Draining remaining packets ...
Time taken is 3069 cycles
Class 0:
Packet latency average = 22.3214
	minimum = 7
	maximum = 68
Network latency average = 22.3214
	minimum = 7
	maximum = 68
Slowest packet = 13593
Flit latency average = 22.3214
	minimum = 7
	maximum = 68
Slowest flit = 13593
Fragmentation average = 0
	minimum = 0
	maximum = 0
Injected packet rate average = 0.05
	minimum = 0.036 (at node 15)
	maximum = 0.076 (at node 12)
Accepted packet rate average = 0.049
	minimum = 0.036 (at node 2)
	maximum = 0.076 (at node 3)
Injected flit rate average = 0.05
	minimum = 0.036 (at node 15)
	maximum = 0.076 (at node 12)
Accepted flit rate average= 0.049
	minimum = 0.036 (at node 2)
	maximum = 0.076 (at node 3)
Injected packet length average = 1
Accepted packet length average = 1
Total in-flight flits = 8 (0 measured)
latency change    = 1
throughput change = 1
Class 0:
Packet latency average = 21.857
	minimum = 7
	maximum = 71
Network latency average = 21.849
	minimum = 7
	maximum = 71
Slowest packet = 14085
Flit latency average = 21.849
	minimum = 7
	maximum = 71
Slowest flit = 14085
Fragmentation average = 0
	minimum = 0
	maximum = 0
Injected packet rate average = 0.047875
	minimum = 0.037 (at node 15)
	maximum = 0.066 (at node 12)
Accepted packet rate average = 0.0471875
	minimum = 0.037 (at node 15)
	maximum = 0.064 (at node 3)
Injected flit rate average = 0.047875
	minimum = 0.037 (at node 15)
	maximum = 0.066 (at node 12)
Accepted flit rate average= 0.0471875
	minimum = 0.037 (at node 15)
	maximum = 0.064 (at node 3)
Injected packet length average = 1
Accepted packet length average = 1
Total in-flight flits = 11 (0 measured)
latency change    = 0.0212507
throughput change = 0.0384106
Class 0:
Packet latency average = 23.3094
	minimum = 7
	maximum = 85
Network latency average = 23.3094
	minimum = 7
	maximum = 85
Slowest packet = 14341
Flit latency average = 23.3094
	minimum = 7
	maximum = 85
Slowest flit = 14341
Fragmentation average = 0
	minimum = 0
	maximum = 0
Injected packet rate average = 0.052625
	minimum = 0.034 (at node 10)
	maximum = 0.08 (at node 14)
Accepted packet rate average = 0.052125
	minimum = 0.034 (at node 10)
	maximum = 0.08 (at node 11)
Injected flit rate average = 0.052625
	minimum = 0.034 (at node 10)
	maximum = 0.08 (at node 14)
Accepted flit rate average= 0.052125
	minimum = 0.034 (at node 10)
	maximum = 0.08 (at node 11)
Injected packet length average = 1
Accepted packet length average = 1
Total in-flight flits = 15 (0 measured)
latency change    = 0.0623097
throughput change = 0.0947242
Warmed up ...Time used is 1500 cycles
Class 0:
Packet latency average = 24.4329
	minimum = 7
	maximum = 111
Network latency average = 24.4329
	minimum = 7
	maximum = 111
Slowest packet = 14786
Flit latency average = 24.5439
	minimum = 7
	maximum = 111
Slowest flit = 14786
Fragmentation average = 0
	minimum = 0
	maximum = 0
Injected packet rate average = 0.051375
	minimum = 0.038 (at node 1)
	maximum = 0.074 (at node 13)
Accepted packet rate average = 0.05125
	minimum = 0.038 (at node 4)
	maximum = 0.074 (at node 13)
Injected flit rate average = 0.051375
	minimum = 0.038 (at node 1)
	maximum = 0.074 (at node 13)
Accepted flit rate average= 0.05125
	minimum = 0.038 (at node 4)
	maximum = 0.074 (at node 13)
Injected packet length average = 1
Accepted packet length average = 1
Total in-flight flits = 16 (16 measured)
latency change    = 0.0459855
throughput change = 0.0170732
Class 0:
Packet latency average = 22.8365
	minimum = 7
	maximum = 111
Network latency average = 22.8365
	minimum = 7
	maximum = 111
Slowest packet = 14786
Flit latency average = 22.9216
	minimum = 7
	maximum = 111
Slowest flit = 14786
Fragmentation average = 0
	minimum = 0
	maximum = 0
Injected packet rate average = 0.051125
	minimum = 0.041 (at node 3)
	maximum = 0.065 (at node 4)
Accepted packet rate average = 0.051
	minimum = 0.041 (at node 12)
	maximum = 0.067 (at node 1)
Injected flit rate average = 0.051125
	minimum = 0.041 (at node 3)
	maximum = 0.065 (at node 4)
Accepted flit rate average= 0.051
	minimum = 0.041 (at node 12)
	maximum = 0.067 (at node 1)
Injected packet length average = 1
Accepted packet length average = 1
Total in-flight flits = 17 (17 measured)
latency change    = 0.0699083
throughput change = 0.00490196
Class 0:
Packet latency average = 22.4287
	minimum = 7
	maximum = 111
Network latency average = 22.4287
	minimum = 7
	maximum = 111
Slowest packet = 14786
Flit latency average = 22.4902
	minimum = 7
	maximum = 111
Slowest flit = 14786
Fragmentation average = 0
	minimum = 0
	maximum = 0
Injected packet rate average = 0.0514583
	minimum = 0.0413333 (at node 5)
	maximum = 0.062 (at node 7)
Accepted packet rate average = 0.0511667
	minimum = 0.0413333 (at node 5)
	maximum = 0.062 (at node 1)
Injected flit rate average = 0.0514583
	minimum = 0.0413333 (at node 5)
	maximum = 0.062 (at node 7)
Accepted flit rate average= 0.0511667
	minimum = 0.0413333 (at node 5)
	maximum = 0.062 (at node 1)
Injected packet length average = 1
Accepted packet length average = 1
Total in-flight flits = 22 (22 measured)
latency change    = 0.0181805
throughput change = 0.00325733
Class 0:
Packet latency average = 22.3894
	minimum = 7
	maximum = 111
Network latency average = 22.3813
	minimum = 7
	maximum = 111
Slowest packet = 14786
Flit latency average = 22.4284
	minimum = 7
	maximum = 111
Slowest flit = 14786
Fragmentation average = 0
	minimum = 0
	maximum = 0
Injected packet rate average = 0.050875
	minimum = 0.043 (at node 15)
	maximum = 0.061 (at node 7)
Accepted packet rate average = 0.050625
	minimum = 0.043 (at node 15)
	maximum = 0.0605 (at node 13)
Injected flit rate average = 0.050875
	minimum = 0.043 (at node 15)
	maximum = 0.061 (at node 7)
Accepted flit rate average= 0.050625
	minimum = 0.043 (at node 15)
	maximum = 0.0605 (at node 13)
Injected packet length average = 1
Accepted packet length average = 1
Total in-flight flits = 23 (23 measured)
latency change    = 0.00175445
throughput change = 0.0106996
Class 0:
Packet latency average = 22.9436
	minimum = 7
	maximum = 113
Network latency average = 22.9135
	minimum = 7
	maximum = 111
Slowest packet = 14786
Flit latency average = 22.9464
	minimum = 7
	maximum = 111
Slowest flit = 14786
Fragmentation average = 0
	minimum = 0
	maximum = 0
Injected packet rate average = 0.0519
	minimum = 0.0444 (at node 15)
	maximum = 0.06 (at node 7)
Accepted packet rate average = 0.0518
	minimum = 0.0444 (at node 15)
	maximum = 0.0604 (at node 13)
Injected flit rate average = 0.0519
	minimum = 0.0444 (at node 15)
	maximum = 0.06 (at node 7)
Accepted flit rate average= 0.0518
	minimum = 0.0444 (at node 15)
	maximum = 0.0604 (at node 13)
Injected packet length average = 1
Accepted packet length average = 1
Total in-flight flits = 19 (19 measured)
latency change    = 0.0241548
throughput change = 0.0226834
Draining all recorded packets ...
Draining remaining packets ...
Time taken is 4081 cycles
Class 0:
Packet latency average = 21.7493
	minimum = 7
	maximum = 63
Network latency average = 21.7493
	minimum = 7
	maximum = 63
Slowest packet = 16808
Flit latency average = 21.7493
	minimum = 7
	maximum = 63
Slowest flit = 16808
Fragmentation average = 0
	minimum = 0
	maximum = 0
Injected packet rate average = 0.050125
	minimum = 0.026 (at node 11)
	maximum = 0.076 (at node 9)
Accepted packet rate average = 0.047875
	minimum = 0.024 (at node 14)
	maximum = 0.074 (at node 6)
Injected flit rate average = 0.050125
	minimum = 0.026 (at node 11)
	maximum = 0.076 (at node 9)
Accepted flit rate average= 0.047875
	minimum = 0.024 (at node 14)
	maximum = 0.074 (at node 6)
Injected packet length average = 1
Accepted packet length average = 1
Total in-flight flits = 18 (0 measured)
latency change    = 1
throughput change = 1
Class 0:
Packet latency average = 22.4474
	minimum = 7
	maximum = 78
Network latency average = 22.4474
	minimum = 7
	maximum = 78
Slowest packet = 17398
Flit latency average = 22.4474
	minimum = 7
	maximum = 78
Slowest flit = 17398
Fragmentation average = 0
	minimum = 0
	maximum = 0
Injected packet rate average = 0.0513125
	minimum = 0.029 (at node 11)
	maximum = 0.062 (at node 9)
Accepted packet rate average = 0.049875
	minimum = 0.029 (at node 14)
	maximum = 0.06 (at node 6)
Injected flit rate average = 0.0513125
	minimum = 0.029 (at node 11)
	maximum = 0.062 (at node 9)
Accepted flit rate average= 0.049875
	minimum = 0.029 (at node 14)
	maximum = 0.06 (at node 6)
Injected packet length average = 1
Accepted packet length average = 1
Total in-flight flits = 23 (0 measured)
latency change    = 0.0310959
throughput change = 0.0401003
Class 0:
Packet latency average = 22.2101
	minimum = 7
	maximum = 92
Network latency average = 22.2101
	minimum = 7
	maximum = 92
Slowest packet = 17545
Flit latency average = 22.2101
	minimum = 7
	maximum = 92
Slowest flit = 17545
Fragmentation average = 0
	minimum = 0
	maximum = 0
Injected packet rate average = 0.04825
	minimum = 0.024 (at node 1)
	maximum = 0.062 (at node 13)
Accepted packet rate average = 0.049375
	minimum = 0.028 (at node 4)
	maximum = 0.066 (at node 7)
Injected flit rate average = 0.04825
	minimum = 0.024 (at node 1)
	maximum = 0.062 (at node 13)
Accepted flit rate average= 0.049375
	minimum = 0.028 (at node 4)
	maximum = 0.066 (at node 7)
Injected packet length average = 1
Accepted packet length average = 1
Total in-flight flits = 14 (0 measured)
latency change    = 0.0106817
throughput change = 0.0101266
Warmed up ...Time used is 1500 cycles
Class 0:
Packet latency average = 21.2054
	minimum = 7
	maximum = 68
Network latency average = 21.2054
	minimum = 7
	maximum = 68
Slowest packet = 18080
Flit latency average = 21.4799
	minimum = 7
	maximum = 68
Slowest flit = 18080
Fragmentation average = 0
	minimum = 0
	maximum = 0
Injected packet rate average = 0.05325
	minimum = 0.036 (at node 1)
	maximum = 0.072 (at node 0)
Accepted packet rate average = 0.052875
	minimum = 0.034 (at node 4)
	maximum = 0.072 (at node 0)
Injected flit rate average = 0.05325
	minimum = 0.036 (at node 1)
	maximum = 0.072 (at node 0)
Accepted flit rate average= 0.052875
	minimum = 0.034 (at node 4)
	maximum = 0.072 (at node 0)
Injected packet length average = 1
Accepted packet length average = 1
Total in-flight flits = 17 (17 measured)
latency change    = 0.0473817
throughput change = 0.0661939
Class 0:
Packet latency average = 20.8483
	minimum = 7
	maximum = 68
Network latency average = 20.8483
	minimum = 7
	maximum = 68
Slowest packet = 18080
Flit latency average = 20.9963
	minimum = 7
	maximum = 68
Slowest flit = 18080
Fragmentation average = 0
	minimum = 0
	maximum = 0
Injected packet rate average = 0.051125
	minimum = 0.039 (at node 1)
	maximum = 0.061 (at node 0)
Accepted packet rate average = 0.051125
	minimum = 0.039 (at node 4)
	maximum = 0.061 (at node 0)
Injected flit rate average = 0.051125
	minimum = 0.039 (at node 1)
	maximum = 0.061 (at node 0)
Accepted flit rate average= 0.051125
	minimum = 0.039 (at node 4)
	maximum = 0.061 (at node 0)
Injected packet length average = 1
Accepted packet length average = 1
Total in-flight flits = 14 (14 measured)
latency change    = 0.0171295
throughput change = 0.0342298
Class 0:
Packet latency average = 21.0448
	minimum = 7
	maximum = 68
Network latency average = 21.0448
	minimum = 7
	maximum = 68
Slowest packet = 18080
Flit latency average = 21.1455
	minimum = 7
	maximum = 68
Slowest flit = 18080
Fragmentation average = 0
	minimum = 0
	maximum = 0
Injected packet rate average = 0.0490833
	minimum = 0.0393333 (at node 1)
	maximum = 0.0573333 (at node 10)
Accepted packet rate average = 0.0489583
	minimum = 0.0386667 (at node 4)
	maximum = 0.058 (at node 10)
Injected flit rate average = 0.0490833
	minimum = 0.0393333 (at node 1)
	maximum = 0.0573333 (at node 10)
Accepted flit rate average= 0.0489583
	minimum = 0.0386667 (at node 4)
	maximum = 0.058 (at node 10)
Injected packet length average = 1
Accepted packet length average = 1
Total in-flight flits = 17 (17 measured)
latency change    = 0.00933867
throughput change = 0.0442553
Class 0:
Packet latency average = 21.662
	minimum = 7
	maximum = 119
Network latency average = 21.6195
	minimum = 7
	maximum = 119
Slowest packet = 19124
Flit latency average = 21.6889
	minimum = 7
	maximum = 119
Slowest flit = 19124
Fragmentation average = 0
	minimum = 0
	maximum = 0
Injected packet rate average = 0.0499062
	minimum = 0.0395 (at node 1)
	maximum = 0.0585 (at node 10)
Accepted packet rate average = 0.0497187
	minimum = 0.0395 (at node 4)
	maximum = 0.059 (at node 10)
Injected flit rate average = 0.0499062
	minimum = 0.0395 (at node 1)
	maximum = 0.0585 (at node 10)
Accepted flit rate average= 0.0497187
	minimum = 0.0395 (at node 4)
	maximum = 0.059 (at node 10)
Injected packet length average = 1
Accepted packet length average = 1
Total in-flight flits = 20 (20 measured)
latency change    = 0.0284935
throughput change = 0.0152944
Draining all recorded packets ...
Draining remaining packets ...
Time taken is 3576 cycles
Class 0:
Packet latency average = 22.7172
	minimum = 7
	maximum = 92
Network latency average = 22.7172
	minimum = 7
	maximum = 92
Slowest packet = 19606
Flit latency average = 22.7172
	minimum = 7
	maximum = 92
Slowest flit = 19606
Fragmentation average = 0
	minimum = 0
	maximum = 0
Injected packet rate average = 0.050125
	minimum = 0.032 (at node 14)
	maximum = 0.064 (at node 13)
Accepted packet rate average = 0.048625
	minimum = 0.03 (at node 11)
	maximum = 0.06 (at node 1)
Injected flit rate average = 0.050125
	minimum = 0.032 (at node 14)
	maximum = 0.064 (at node 13)
Accepted flit rate average= 0.048625
	minimum = 0.03 (at node 11)
	maximum = 0.06 (at node 1)
Injected packet length average = 1
Accepted packet length average = 1
Total in-flight flits = 12 (0 measured)
latency change    = 1
throughput change = 1
Class 0:
Packet latency average = 23.2529
	minimum = 7
	maximum = 122
Network latency average = 23.2529
	minimum = 7
	maximum = 122
Slowest packet = 20052
Flit latency average = 23.2529
	minimum = 7
	maximum = 122
Slowest flit = 20052
Fragmentation average = 0
	minimum = 0
	maximum = 0
Injected packet rate average = 0.05025
	minimum = 0.033 (at node 15)
	maximum = 0.064 (at node 13)
Accepted packet rate average = 0.0489375
	minimum = 0.033 (at node 15)
	maximum = 0.06 (at node 7)
Injected flit rate average = 0.05025
	minimum = 0.033 (at node 15)
	maximum = 0.064 (at node 13)
Accepted flit rate average= 0.0489375
	minimum = 0.033 (at node 15)
	maximum = 0.06 (at node 7)
Injected packet length average = 1
Accepted packet length average = 1
Total in-flight flits = 21 (0 measured)
latency change    = 0.0230359
throughput change = 0.0063857
Class 0:
Packet latency average = 21.9268
	minimum = 7
	maximum = 63
Network latency average = 21.9241
	minimum = 7
	maximum = 63
Slowest packet = 20280
Flit latency average = 21.9241
	minimum = 7
	maximum = 63
Slowest flit = 20280
Fragmentation average = 0
	minimum = 0
	maximum = 0
Injected packet rate average = 0.0455
	minimum = 0.02 (at node 0)
	maximum = 0.062 (at node 11)
Accepted packet rate average = 0.046125
	minimum = 0.02 (at node 0)
	maximum = 0.064 (at node 14)
Injected flit rate average = 0.0455
	minimum = 0.02 (at node 0)
	maximum = 0.062 (at node 11)
Accepted flit rate average= 0.046125
	minimum = 0.02 (at node 0)
	maximum = 0.064 (at node 14)
Injected packet length average = 1
Accepted packet length average = 1
Total in-flight flits = 16 (0 measured)
latency change    = 0.0604759
throughput change = 0.0609756
Warmed up ...Time used is 1500 cycles
Class 0:
Packet latency average = 20.5703
	minimum = 7
	maximum = 55
Network latency average = 20.5703
	minimum = 7
	maximum = 55
Slowest packet = 20729
Flit latency average = 20.8497
	minimum = 7
	maximum = 55
Slowest flit = 20729
Fragmentation average = 0
	minimum = 0
	maximum = 0
Injected packet rate average = 0.0485
	minimum = 0.036 (at node 6)
	maximum = 0.064 (at node 7)
Accepted packet rate average = 0.04825
	minimum = 0.04 (at node 6)
	maximum = 0.07 (at node 13)
Injected flit rate average = 0.0485
	minimum = 0.036 (at node 6)
	maximum = 0.064 (at node 7)
Accepted flit rate average= 0.04825
	minimum = 0.04 (at node 6)
	maximum = 0.07 (at node 13)
Injected packet length average = 1
Accepted packet length average = 1
Total in-flight flits = 18 (18 measured)
latency change    = 0.0659476
throughput change = 0.0440415
Class 0:
Packet latency average = 21.149
	minimum = 7
	maximum = 58
Network latency average = 21.149
	minimum = 7
	maximum = 58
Slowest packet = 21212
Flit latency average = 21.2786
	minimum = 7
	maximum = 58
Slowest flit = 21212
Fragmentation average = 0
	minimum = 0
	maximum = 0
Injected packet rate average = 0.047375
	minimum = 0.035 (at node 6)
	maximum = 0.067 (at node 7)
Accepted packet rate average = 0.0475625
	minimum = 0.036 (at node 9)
	maximum = 0.071 (at node 13)
Injected flit rate average = 0.047375
	minimum = 0.035 (at node 6)
	maximum = 0.067 (at node 7)
Accepted flit rate average= 0.0475625
	minimum = 0.036 (at node 9)
	maximum = 0.071 (at node 13)
Injected packet length average = 1
Accepted packet length average = 1
Total in-flight flits = 13 (13 measured)
latency change    = 0.0273641
throughput change = 0.0144547
Class 0:
Packet latency average = 21.5087
	minimum = 7
	maximum = 85
Network latency average = 21.5087
	minimum = 7
	maximum = 85
Slowest packet = 21652
Flit latency average = 21.5888
	minimum = 7
	maximum = 85
Slowest flit = 21652
Fragmentation average = 0
	minimum = 0
	maximum = 0
Injected packet rate average = 0.0483333
	minimum = 0.0406667 (at node 6)
	maximum = 0.06 (at node 7)
Accepted packet rate average = 0.0483333
	minimum = 0.0413333 (at node 5)
	maximum = 0.062 (at node 13)
Injected flit rate average = 0.0483333
	minimum = 0.0406667 (at node 6)
	maximum = 0.06 (at node 7)
Accepted flit rate average= 0.0483333
	minimum = 0.0413333 (at node 5)
	maximum = 0.062 (at node 13)
Injected packet length average = 1
Accepted packet length average = 1
Total in-flight flits = 16 (16 measured)
latency change    = 0.0167257
throughput change = 0.0159483
Class 0:
Packet latency average = 21.5732
	minimum = 7
	maximum = 95
Network latency average = 21.5732
	minimum = 7
	maximum = 95
Slowest packet = 21921
Flit latency average = 21.6321
	minimum = 7
	maximum = 95
Slowest flit = 21921
Fragmentation average = 0
	minimum = 0
	maximum = 0
Injected packet rate average = 0.0488125
	minimum = 0.04 (at node 9)
	maximum = 0.056 (at node 12)
Accepted packet rate average = 0.04875
	minimum = 0.0405 (at node 6)
	maximum = 0.056 (at node 13)
Injected flit rate average = 0.0488125
	minimum = 0.04 (at node 9)
	maximum = 0.056 (at node 12)
Accepted flit rate average= 0.04875
	minimum = 0.0405 (at node 6)
	maximum = 0.056 (at node 13)
Injected packet length average = 1
Accepted packet length average = 1
Total in-flight flits = 18 (18 measured)
latency change    = 0.00298729
throughput change = 0.00854701
Draining all recorded packets ...
Draining remaining packets ...
Time taken is 3573 cycles
Class 0:
Packet latency average = 24.9684
	minimum = 7
	maximum = 105
Network latency average = 24.9605
	minimum = 7
	maximum = 105
Slowest packet = 22307
Flit latency average = 24.9605
	minimum = 7
	maximum = 105
Slowest flit = 22307
Fragmentation average = 0
	minimum = 0
	maximum = 0
Injected packet rate average = 0.049875
	minimum = 0.026 (at node 11)
	maximum = 0.074 (at node 9)
Accepted packet rate average = 0.0475
	minimum = 0.026 (at node 14)
	maximum = 0.07 (at node 6)
Injected flit rate average = 0.049875
	minimum = 0.026 (at node 11)
	maximum = 0.074 (at node 9)
Accepted flit rate average= 0.0475
	minimum = 0.026 (at node 14)
	maximum = 0.07 (at node 6)
Injected packet length average = 1
Accepted packet length average = 1
Total in-flight flits = 19 (0 measured)
latency change    = 1
throughput change = 1
Class 0:
Packet latency average = 22.4541
	minimum = 7
	maximum = 105
Network latency average = 22.4503
	minimum = 7
	maximum = 105
Slowest packet = 22307
Flit latency average = 22.4503
	minimum = 7
	maximum = 105
Slowest flit = 22307
Fragmentation average = 0
	minimum = 0
	maximum = 0
Injected packet rate average = 0.0504375
	minimum = 0.035 (at node 2)
	maximum = 0.069 (at node 9)
Accepted packet rate average = 0.0496875
	minimum = 0.035 (at node 8)
	maximum = 0.068 (at node 6)
Injected flit rate average = 0.0504375
	minimum = 0.035 (at node 2)
	maximum = 0.069 (at node 9)
Accepted flit rate average= 0.0496875
	minimum = 0.035 (at node 8)
	maximum = 0.068 (at node 6)
Injected packet length average = 1
Accepted packet length average = 1
Total in-flight flits = 12 (0 measured)
latency change    = 0.111977
throughput change = 0.0440252
Class 0:
Packet latency average = 20.1257
	minimum = 7
	maximum = 48
Network latency average = 20.1257
	minimum = 7
	maximum = 48
Slowest packet = 23072
Flit latency average = 20.1257
	minimum = 7
	maximum = 48
Slowest flit = 23072
Fragmentation average = 0
	minimum = 0
	maximum = 0
Injected packet rate average = 0.048375
	minimum = 0.034 (at node 7)
	maximum = 0.068 (at node 5)
Accepted packet rate average = 0.04775
	minimum = 0.028 (at node 13)
	maximum = 0.068 (at node 5)
Injected flit rate average = 0.048375
	minimum = 0.034 (at node 7)
	maximum = 0.068 (at node 5)
Accepted flit rate average= 0.04775
	minimum = 0.028 (at node 13)
	maximum = 0.068 (at node 5)
Injected packet length average = 1
Accepted packet length average = 1
Total in-flight flits = 17 (0 measured)
latency change    = 0.115695
throughput change = 0.0405759
Warmed up ...Time used is 1500 cycles
Class 0:
Packet latency average = 20.8579
	minimum = 7
	maximum = 64
Network latency average = 20.8579
	minimum = 7
	maximum = 64
Slowest packet = 23560
Flit latency average = 20.9641
	minimum = 7
	maximum = 64
Slowest flit = 23560
Fragmentation average = 0
	minimum = 0
	maximum = 0
Injected packet rate average = 0.048375
	minimum = 0.038 (at node 7)
	maximum = 0.066 (at node 1)
Accepted packet rate average = 0.04875
	minimum = 0.04 (at node 0)
	maximum = 0.066 (at node 4)
Injected flit rate average = 0.048375
	minimum = 0.038 (at node 7)
	maximum = 0.066 (at node 1)
Accepted flit rate average= 0.04875
	minimum = 0.04 (at node 0)
	maximum = 0.066 (at node 4)
Injected packet length average = 1
Accepted packet length average = 1
Total in-flight flits = 14 (14 measured)
latency change    = 0.0351068
throughput change = 0.0205128
Class 0:
Packet latency average = 20.6183
	minimum = 7
	maximum = 72
Network latency average = 20.6183
	minimum = 7
	maximum = 72
Slowest packet = 24107
Flit latency average = 20.6781
	minimum = 7
	maximum = 72
Slowest flit = 24107
Fragmentation average = 0
	minimum = 0
	maximum = 0
Injected packet rate average = 0.047875
	minimum = 0.037 (at node 6)
	maximum = 0.057 (at node 1)
Accepted packet rate average = 0.0475625
	minimum = 0.037 (at node 9)
	maximum = 0.057 (at node 4)
Injected flit rate average = 0.047875
	minimum = 0.037 (at node 6)
	maximum = 0.057 (at node 1)
Accepted flit rate average= 0.0475625
	minimum = 0.037 (at node 9)
	maximum = 0.057 (at node 4)
Injected packet length average = 1
Accepted packet length average = 1
Total in-flight flits = 22 (22 measured)
latency change    = 0.0116222
throughput change = 0.0249671
Class 0:
Packet latency average = 20.6325
	minimum = 7
	maximum = 72
Network latency average = 20.6325
	minimum = 7
	maximum = 72
Slowest packet = 24107
Flit latency average = 20.6712
	minimum = 7
	maximum = 72
Slowest flit = 24107
Fragmentation average = 0
	minimum = 0
	maximum = 0
Injected packet rate average = 0.048625
	minimum = 0.0386667 (at node 9)
	maximum = 0.058 (at node 14)
Accepted packet rate average = 0.0486667
	minimum = 0.0406667 (at node 6)
	maximum = 0.0586667 (at node 11)
Injected flit rate average = 0.048625
	minimum = 0.0386667 (at node 9)
	maximum = 0.058 (at node 14)
Accepted flit rate average= 0.0486667
	minimum = 0.0406667 (at node 6)
	maximum = 0.0586667 (at node 11)
Injected packet length average = 1
Accepted packet length average = 1
Total in-flight flits = 16 (16 measured)
latency change    = 0.000688909
throughput change = 0.0226884
Draining all recorded packets ...
Draining remaining packets ...
Time taken is 3068 cycles
Class 0:
Packet latency average = 20.4885
	minimum = 7
	maximum = 57
Network latency average = 20.4808
	minimum = 7
	maximum = 57
Slowest packet = 24921
Flit latency average = 20.4808
	minimum = 7
	maximum = 57
Slowest flit = 24921
Fragmentation average = 0
	minimum = 0
	maximum = 0
Injected packet rate average = 0.051
	minimum = 0.038 (at node 3)
	maximum = 0.066 (at node 14)
Accepted packet rate average = 0.048875
	minimum = 0.034 (at node 12)
	maximum = 0.066 (at node 11)
Injected flit rate average = 0.051
	minimum = 0.038 (at node 3)
	maximum = 0.066 (at node 14)
Accepted flit rate average= 0.048875
	minimum = 0.034 (at node 12)
	maximum = 0.066 (at node 11)
Injected packet length average = 1
Accepted packet length average = 1
Total in-flight flits = 17 (0 measured)
latency change    = 1
throughput change = 1
Class 0:
Packet latency average = 21.743
	minimum = 7
	maximum = 81
Network latency average = 21.7394
	minimum = 7
	maximum = 81
Slowest packet = 25187
Flit latency average = 21.7394
	minimum = 7
	maximum = 81
Slowest flit = 25187
Fragmentation average = 0
	minimum = 0
	maximum = 0
Injected packet rate average = 0.0521875
	minimum = 0.044 (at node 5)
	maximum = 0.062 (at node 14)
Accepted packet rate average = 0.0515625
	minimum = 0.044 (at node 5)
	maximum = 0.06 (at node 11)
Injected flit rate average = 0.0521875
	minimum = 0.044 (at node 5)
	maximum = 0.062 (at node 14)
Accepted flit rate average= 0.0515625
	minimum = 0.044 (at node 5)
	maximum = 0.06 (at node 11)
Injected packet length average = 1
Accepted packet length average = 1
Total in-flight flits = 10 (0 measured)
latency change    = 0.0576985
throughput change = 0.0521212
Class 0:
Packet latency average = 19.7377
	minimum = 7
	maximum = 58
Network latency average = 19.7377
	minimum = 7
	maximum = 58
Slowest packet = 25815
Flit latency average = 19.7377
	minimum = 7
	maximum = 58
Slowest flit = 25815
Fragmentation average = 0
	minimum = 0
	maximum = 0
Injected packet rate average = 0.05125
	minimum = 0.034 (at node 11)
	maximum = 0.068 (at node 6)
Accepted packet rate average = 0.051
	minimum = 0.034 (at node 14)
	maximum = 0.068 (at node 9)
Injected flit rate average = 0.05125
	minimum = 0.034 (at node 11)
	maximum = 0.068 (at node 6)
Accepted flit rate average= 0.051
	minimum = 0.034 (at node 14)
	maximum = 0.068 (at node 9)
Injected packet length average = 1
Accepted packet length average = 1
Total in-flight flits = 12 (0 measured)
latency change    = 0.101596
throughput change = 0.0110294
Warmed up ...Time used is 1500 cycles
Class 0:
Packet latency average = 20.2762
	minimum = 7
	maximum = 52
Network latency average = 20.2762
	minimum = 7
	maximum = 52
Slowest packet = 26083
Flit latency average = 20.6352
	minimum = 7
	maximum = 52
Slowest flit = 26083
Fragmentation average = 0
	minimum = 0
	maximum = 0
Injected packet rate average = 0.0515
	minimum = 0.034 (at node 3)
	maximum = 0.08 (at node 2)
Accepted packet rate average = 0.050375
	minimum = 0.038 (at node 3)
	maximum = 0.078 (at node 14)
Injected flit rate average = 0.0515
	minimum = 0.034 (at node 3)
	maximum = 0.08 (at node 2)
Accepted flit rate average= 0.050375
	minimum = 0.038 (at node 3)
	maximum = 0.078 (at node 14)
Injected packet length average = 1
Accepted packet length average = 1
Total in-flight flits = 21 (21 measured)
latency change    = 0.0265567
throughput change = 0.0124069
Class 0:
Packet latency average = 20.9001
	minimum = 7
	maximum = 68
Network latency average = 20.9001
	minimum = 7
	maximum = 68
Slowest packet = 26410
Flit latency average = 21.071
	minimum = 7
	maximum = 68
Slowest flit = 26410
Fragmentation average = 0
	minimum = 0
	maximum = 0
Injected packet rate average = 0.0500625
	minimum = 0.036 (at node 3)
	maximum = 0.067 (at node 2)
Accepted packet rate average = 0.0501875
	minimum = 0.037 (at node 6)
	maximum = 0.068 (at node 8)
Injected flit rate average = 0.0500625
	minimum = 0.036 (at node 3)
	maximum = 0.067 (at node 2)
Accepted flit rate average= 0.0501875
	minimum = 0.037 (at node 6)
	maximum = 0.068 (at node 8)
Injected packet length average = 1
Accepted packet length average = 1
Total in-flight flits = 10 (10 measured)
latency change    = 0.029852
throughput change = 0.00373599
Class 0:
Packet latency average = 20.9212
	minimum = 7
	maximum = 71
Network latency average = 20.9212
	minimum = 7
	maximum = 71
Slowest packet = 26814
Flit latency average = 21.0373
	minimum = 7
	maximum = 71
Slowest flit = 26814
Fragmentation average = 0
	minimum = 0
	maximum = 0
Injected packet rate average = 0.0493333
	minimum = 0.04 (at node 3)
	maximum = 0.0633333 (at node 2)
Accepted packet rate average = 0.049125
	minimum = 0.0406667 (at node 1)
	maximum = 0.0626667 (at node 8)
Injected flit rate average = 0.0493333
	minimum = 0.04 (at node 3)
	maximum = 0.0633333 (at node 2)
Accepted flit rate average= 0.049125
	minimum = 0.0406667 (at node 1)
	maximum = 0.0626667 (at node 8)
Injected packet length average = 1
Accepted packet length average = 1
Total in-flight flits = 17 (17 measured)
latency change    = 0.00100563
throughput change = 0.0216285
Draining all recorded packets ...
Draining remaining packets ...
Time taken is 3096 cycles
Class 0:
Packet latency average = 22.3484
	minimum = 7
	maximum = 85
Network latency average = 22.3484
	minimum = 7
	maximum = 85
Slowest packet = 27183
Flit latency average = 22.3484
	minimum = 7
	maximum = 85
Slowest flit = 27183
Fragmentation average = 0
	minimum = 0
	maximum = 0
Injected packet rate average = 0.049
	minimum = 0.036 (at node 4)
	maximum = 0.062 (at node 3)
Accepted packet rate average = 0.047
	minimum = 0.036 (at node 1)
	maximum = 0.058 (at node 6)
Injected flit rate average = 0.049
	minimum = 0.036 (at node 4)
	maximum = 0.062 (at node 3)
Accepted flit rate average= 0.047
	minimum = 0.036 (at node 1)
	maximum = 0.058 (at node 6)
Injected packet length average = 1
Accepted packet length average = 1
Total in-flight flits = 16 (0 measured)
latency change    = 1
throughput change = 1
Class 0:
Packet latency average = 21.0154
	minimum = 7
	maximum = 85
Network latency average = 21.0154
	minimum = 7
	maximum = 85
Slowest packet = 27183
Flit latency average = 21.0154
	minimum = 7
	maximum = 85
Slowest flit = 27183
Fragmentation average = 0
	minimum = 0
	maximum = 0
Injected packet rate average = 0.049875
	minimum = 0.039 (at node 13)
	maximum = 0.062 (at node 9)
Accepted packet rate average = 0.0486875
	minimum = 0.039 (at node 7)
	maximum = 0.061 (at node 6)
Injected flit rate average = 0.049875
	minimum = 0.039 (at node 13)
	maximum = 0.062 (at node 9)
Accepted flit rate average= 0.0486875
	minimum = 0.039 (at node 7)
	maximum = 0.061 (at node 6)
Injected packet length average = 1
Accepted packet length average = 1
Total in-flight flits = 19 (0 measured)
latency change    = 0.0634297
throughput change = 0.0346598
Class 0:
Packet latency average = 23.8485
	minimum = 7
	maximum = 125
Network latency average = 23.8252
	minimum = 7
	maximum = 125
Slowest packet = 28088
Flit latency average = 23.8252
	minimum = 7
	maximum = 125
Slowest flit = 28088
Fragmentation average = 0
	minimum = 0
	maximum = 0
Injected packet rate average = 0.05475
	minimum = 0.034 (at node 3)
	maximum = 0.072 (at node 8)
Accepted packet rate average = 0.053625
	minimum = 0.038 (at node 12)
	maximum = 0.072 (at node 3)
Injected flit rate average = 0.05475
	minimum = 0.034 (at node 3)
	maximum = 0.072 (at node 8)
Accepted flit rate average= 0.053625
	minimum = 0.038 (at node 12)
	maximum = 0.072 (at node 3)
Injected packet length average = 1
Accepted packet length average = 1
Total in-flight flits = 28 (0 measured)
latency change    = 0.118795
throughput change = 0.0920746
Warmed up ...Time used is 1500 cycles
Class 0:
Packet latency average = 23.0852
	minimum = 7
	maximum = 93
Network latency average = 22.8269
	minimum = 7
	maximum = 87
Slowest packet = 28340
Flit latency average = 24.6556
	minimum = 7
	maximum = 126
Slowest flit = 28317
Fragmentation average = 0
	minimum = 0
	maximum = 0
Injected packet rate average = 0.0475
	minimum = 0.032 (at node 13)
	maximum = 0.078 (at node 15)
Accepted packet rate average = 0.049
	minimum = 0.036 (at node 14)
	maximum = 0.078 (at node 15)
Injected flit rate average = 0.0475
	minimum = 0.032 (at node 13)
	maximum = 0.078 (at node 15)
Accepted flit rate average= 0.049
	minimum = 0.036 (at node 14)
	maximum = 0.078 (at node 15)
Injected packet length average = 1
Accepted packet length average = 1
Total in-flight flits = 16 (16 measured)
latency change    = 0.0330654
throughput change = 0.0943878
Class 0:
Packet latency average = 23.2487
	minimum = 7
	maximum = 93
Network latency average = 23.123
	minimum = 7
	maximum = 87
Slowest packet = 28340
Flit latency average = 24.0361
	minimum = 7
	maximum = 126
Slowest flit = 28317
Fragmentation average = 0
	minimum = 0
	maximum = 0
Injected packet rate average = 0.0479375
	minimum = 0.036 (at node 10)
	maximum = 0.064 (at node 9)
Accepted packet rate average = 0.0485
	minimum = 0.036 (at node 10)
	maximum = 0.065 (at node 6)
Injected flit rate average = 0.0479375
	minimum = 0.036 (at node 10)
	maximum = 0.064 (at node 9)
Accepted flit rate average= 0.0485
	minimum = 0.036 (at node 10)
	maximum = 0.065 (at node 6)
Injected packet length average = 1
Accepted packet length average = 1
Total in-flight flits = 19 (19 measured)
latency change    = 0.00703259
throughput change = 0.0103093
Class 0:
Packet latency average = 23.8104
	minimum = 7
	maximum = 121
Network latency average = 23.7278
	minimum = 7
	maximum = 121
Slowest packet = 29067
Flit latency average = 24.3205
	minimum = 7
	maximum = 126
Slowest flit = 28317
Fragmentation average = 0
	minimum = 0
	maximum = 0
Injected packet rate average = 0.0482917
	minimum = 0.036 (at node 10)
	maximum = 0.0593333 (at node 9)
Accepted packet rate average = 0.048625
	minimum = 0.036 (at node 10)
	maximum = 0.062 (at node 6)
Injected flit rate average = 0.0482917
	minimum = 0.036 (at node 10)
	maximum = 0.0593333 (at node 9)
Accepted flit rate average= 0.048625
	minimum = 0.036 (at node 10)
	maximum = 0.062 (at node 6)
Injected packet length average = 1
Accepted packet length average = 1
Total in-flight flits = 20 (20 measured)
latency change    = 0.0235904
throughput change = 0.00257069
Class 0:
Packet latency average = 23.7842
	minimum = 7
	maximum = 121
Network latency average = 23.7235
	minimum = 7
	maximum = 121
Slowest packet = 29067
Flit latency average = 24.1624
	minimum = 7
	maximum = 126
Slowest flit = 28317
Fragmentation average = 0
	minimum = 0
	maximum = 0
Injected packet rate average = 0.048875
	minimum = 0.036 (at node 10)
	maximum = 0.057 (at node 8)
Accepted packet rate average = 0.04925
	minimum = 0.036 (at node 10)
	maximum = 0.058 (at node 2)
Injected flit rate average = 0.048875
	minimum = 0.036 (at node 10)
	maximum = 0.057 (at node 8)
Accepted flit rate average= 0.04925
	minimum = 0.036 (at node 10)
	maximum = 0.058 (at node 2)
Injected packet length average = 1
Accepted packet length average = 1
Total in-flight flits = 16 (16 measured)
latency change    = 0.0010983
throughput change = 0.0126904
Draining all recorded packets ...
Draining remaining packets ...
Time taken is 3567 cycles
Class 0:
Packet latency average = 21.2744
	minimum = 7
	maximum = 60
Network latency average = 21.2744
	minimum = 7
	maximum = 60
Slowest packet = 30079
Flit latency average = 21.2744
	minimum = 7
	maximum = 60
Slowest flit = 30079
Fragmentation average = 0
	minimum = 0
	maximum = 0
Injected packet rate average = 0.049625
	minimum = 0.042 (at node 6)
	maximum = 0.06 (at node 3)
Accepted packet rate average = 0.047375
	minimum = 0.04 (at node 1)
	maximum = 0.054 (at node 2)
Injected flit rate average = 0.049625
	minimum = 0.042 (at node 6)
	maximum = 0.06 (at node 3)
Accepted flit rate average= 0.047375
	minimum = 0.04 (at node 1)
	maximum = 0.054 (at node 2)
Injected packet length average = 1
Accepted packet length average = 1
Total in-flight flits = 18 (0 measured)
latency change    = 1
throughput change = 1
Class 0:
Packet latency average = 21.9243
	minimum = 7
	maximum = 106
Network latency average = 21.9243
	minimum = 7
	maximum = 106
Slowest packet = 30556
Flit latency average = 21.9243
	minimum = 7
	maximum = 106
Slowest flit = 30556
Fragmentation average = 0
	minimum = 0
	maximum = 0
Injected packet rate average = 0.0516875
	minimum = 0.038 (at node 6)
	maximum = 0.062 (at node 5)
Accepted packet rate average = 0.050375
	minimum = 0.037 (at node 9)
	maximum = 0.062 (at node 5)
Injected flit rate average = 0.0516875
	minimum = 0.038 (at node 6)
	maximum = 0.062 (at node 5)
Accepted flit rate average= 0.050375
	minimum = 0.037 (at node 9)
	maximum = 0.062 (at node 5)
Injected packet length average = 1
Accepted packet length average = 1
Total in-flight flits = 21 (0 measured)
latency change    = 0.0296434
throughput change = 0.0595533
Class 0:
Packet latency average = 21.866
	minimum = 7
	maximum = 69
Network latency average = 21.866
	minimum = 7
	maximum = 69
Slowest packet = 30877
Flit latency average = 21.866
	minimum = 7
	maximum = 69
Slowest flit = 30877
Fragmentation average = 0
	minimum = 0
	maximum = 0
Injected packet rate average = 0.051625
	minimum = 0.044 (at node 1)
	maximum = 0.066 (at node 7)
Accepted packet rate average = 0.05225
	minimum = 0.042 (at node 3)
	maximum = 0.066 (at node 13)
Injected flit rate average = 0.051625
	minimum = 0.044 (at node 1)
	maximum = 0.066 (at node 7)
Accepted flit rate average= 0.05225
	minimum = 0.042 (at node 3)
	maximum = 0.066 (at node 13)
Injected packet length average = 1
Accepted packet length average = 1
Total in-flight flits = 16 (0 measured)
latency change    = 0.00266573
throughput change = 0.0358852
Warmed up ...Time used is 1500 cycles
Class 0:
Packet latency average = 20.2133
	minimum = 7
	maximum = 46
Network latency average = 20.2133
	minimum = 7
	maximum = 46
Slowest packet = 31193
Flit latency average = 20.8408
	minimum = 7
	maximum = 70
Slowest flit = 31133
Fragmentation average = 0
	minimum = 0
	maximum = 0
Injected packet rate average = 0.0475
	minimum = 0.026 (at node 2)
	maximum = 0.07 (at node 11)
Accepted packet rate average = 0.047125
	minimum = 0.024 (at node 8)
	maximum = 0.068 (at node 14)
Injected flit rate average = 0.0475
	minimum = 0.026 (at node 2)
	maximum = 0.07 (at node 11)
Accepted flit rate average= 0.047125
	minimum = 0.024 (at node 8)
	maximum = 0.068 (at node 14)
Injected packet length average = 1
Accepted packet length average = 1
Total in-flight flits = 19 (19 measured)
latency change    = 0.0817646
throughput change = 0.108753
Class 0:
Packet latency average = 21.6386
	minimum = 7
	maximum = 101
Network latency average = 21.6359
	minimum = 7
	maximum = 101
Slowest packet = 31558
Flit latency average = 21.9161
	minimum = 7
	maximum = 101
Slowest flit = 31558
Fragmentation average = 0
	minimum = 0
	maximum = 0
Injected packet rate average = 0.0484375
	minimum = 0.029 (at node 2)
	maximum = 0.063 (at node 11)
Accepted packet rate average = 0.0476875
	minimum = 0.029 (at node 8)
	maximum = 0.064 (at node 14)
Injected flit rate average = 0.0484375
	minimum = 0.029 (at node 2)
	maximum = 0.063 (at node 11)
Accepted flit rate average= 0.0476875
	minimum = 0.029 (at node 8)
	maximum = 0.064 (at node 14)
Injected packet length average = 1
Accepted packet length average = 1
Total in-flight flits = 28 (28 measured)
latency change    = 0.0658666
throughput change = 0.0117955
Class 0:
Packet latency average = 21.6412
	minimum = 7
	maximum = 101
Network latency average = 21.6395
	minimum = 7
	maximum = 101
Slowest packet = 31558
Flit latency average = 21.8244
	minimum = 7
	maximum = 101
Slowest flit = 31558
Fragmentation average = 0
	minimum = 0
	maximum = 0
Injected packet rate average = 0.0483333
	minimum = 0.04 (at node 2)
	maximum = 0.0613333 (at node 14)
Accepted packet rate average = 0.0481667
	minimum = 0.0393333 (at node 8)
	maximum = 0.0606667 (at node 11)
Injected flit rate average = 0.0483333
	minimum = 0.04 (at node 2)
	maximum = 0.0613333 (at node 14)
Accepted flit rate average= 0.0481667
	minimum = 0.0393333 (at node 8)
	maximum = 0.0606667 (at node 11)
Injected packet length average = 1
Accepted packet length average = 1
Total in-flight flits = 20 (20 measured)
latency change    = 0.000123554
throughput change = 0.0099481
Class 0:
Packet latency average = 21.4346
	minimum = 7
	maximum = 101
Network latency average = 21.4333
	minimum = 7
	maximum = 101
Slowest packet = 31558
Flit latency average = 21.5711
	minimum = 7
	maximum = 101
Slowest flit = 31558
Fragmentation average = 0
	minimum = 0
	maximum = 0
Injected packet rate average = 0.0494062
	minimum = 0.0425 (at node 15)
	maximum = 0.057 (at node 14)
Accepted packet rate average = 0.04925
	minimum = 0.043 (at node 6)
	maximum = 0.0565 (at node 11)
Injected flit rate average = 0.0494062
	minimum = 0.0425 (at node 15)
	maximum = 0.057 (at node 14)
Accepted flit rate average= 0.04925
	minimum = 0.043 (at node 6)
	maximum = 0.0565 (at node 11)
Injected packet length average = 1
Accepted packet length average = 1
Total in-flight flits = 21 (21 measured)
latency change    = 0.00963921
throughput change = 0.0219966
Class 0:
Packet latency average = 21.4855
	minimum = 7
	maximum = 101
Network latency average = 21.4845
	minimum = 7
	maximum = 101
Slowest packet = 31558
Flit latency average = 21.5953
	minimum = 7
	maximum = 101
Slowest flit = 31558
Fragmentation average = 0
	minimum = 0
	maximum = 0
Injected packet rate average = 0.048875
	minimum = 0.0384 (at node 15)
	maximum = 0.0544 (at node 7)
Accepted packet rate average = 0.0488
	minimum = 0.0388 (at node 15)
	maximum = 0.0552 (at node 13)
Injected flit rate average = 0.048875
	minimum = 0.0384 (at node 15)
	maximum = 0.0544 (at node 7)
Accepted flit rate average= 0.0488
	minimum = 0.0388 (at node 15)
	maximum = 0.0552 (at node 13)
Injected packet length average = 1
Accepted packet length average = 1
Total in-flight flits = 19 (19 measured)
latency change    = 0.00237005
throughput change = 0.00922131
Draining all recorded packets ...
Draining remaining packets ...
Time taken is 4073 cycles
Class 0:
Packet latency average = 22.6439
	minimum = 7
	maximum = 75
Network latency average = 22.6439
	minimum = 7
	maximum = 75
Slowest packet = 33257
Flit latency average = 22.6439
	minimum = 7
	maximum = 75
Slowest flit = 33257
Fragmentation average = 0
	minimum = 0
	maximum = 0
Injected packet rate average = 0.052125
	minimum = 0.038 (at node 1)
	maximum = 0.064 (at node 13)
Accepted packet rate average = 0.0495
	minimum = 0.038 (at node 4)
	maximum = 0.06 (at node 3)
Injected flit rate average = 0.052125
	minimum = 0.038 (at node 1)
	maximum = 0.064 (at node 13)
Accepted flit rate average= 0.0495
	minimum = 0.038 (at node 4)
	maximum = 0.06 (at node 3)
Injected packet length average = 1
Accepted packet length average = 1
Total in-flight flits = 21 (0 measured)
latency change    = 1
throughput change = 1
Class 0:
Packet latency average = 26.6068
	minimum = 7
	maximum = 156
Network latency average = 26.0955
	minimum = 7
	maximum = 153
Slowest packet = 33784
Flit latency average = 26.0955
	minimum = 7
	maximum = 153
Slowest flit = 33784
Fragmentation average = 0
	minimum = 0
	maximum = 0
Injected packet rate average = 0.0511875
	minimum = 0.034 (at node 1)
	maximum = 0.073 (at node 13)
Accepted packet rate average = 0.04975
	minimum = 0.033 (at node 4)
	maximum = 0.067 (at node 7)
Injected flit rate average = 0.0511875
	minimum = 0.034 (at node 1)
	maximum = 0.073 (at node 13)
Accepted flit rate average= 0.04975
	minimum = 0.033 (at node 4)
	maximum = 0.067 (at node 7)
Injected packet length average = 1
Accepted packet length average = 1
Total in-flight flits = 23 (0 measured)
latency change    = 0.148941
throughput change = 0.00502513
Class 0:
Packet latency average = 23.7078
	minimum = 7
	maximum = 143
Network latency average = 23.411
	minimum = 7
	maximum = 90
Slowest packet = 33921
Flit latency average = 23.411
	minimum = 7
	maximum = 90
Slowest flit = 33937
Fragmentation average = 0
	minimum = 0
	maximum = 0
Injected packet rate average = 0.053625
	minimum = 0.042 (at node 1)
	maximum = 0.074 (at node 15)
Accepted packet rate average = 0.05475
	minimum = 0.042 (at node 4)
	maximum = 0.074 (at node 15)
Injected flit rate average = 0.053625
	minimum = 0.042 (at node 1)
	maximum = 0.074 (at node 15)
Accepted flit rate average= 0.05475
	minimum = 0.042 (at node 4)
	maximum = 0.074 (at node 15)
Injected packet length average = 1
Accepted packet length average = 1
Total in-flight flits = 14 (0 measured)
latency change    = 0.122282
throughput change = 0.0913242
Warmed up ...Time used is 1500 cycles
Class 0:
Packet latency average = 20.2228
	minimum = 7
	maximum = 67
Network latency average = 20.2228
	minimum = 7
	maximum = 67
Slowest packet = 34660
Flit latency average = 20.32
	minimum = 7
	maximum = 67
Slowest flit = 34660
Fragmentation average = 0
	minimum = 0
	maximum = 0
Injected packet rate average = 0.050125
	minimum = 0.034 (at node 12)
	maximum = 0.072 (at node 6)
Accepted packet rate average = 0.05
	minimum = 0.036 (at node 3)
	maximum = 0.07 (at node 9)
Injected flit rate average = 0.050125
	minimum = 0.034 (at node 12)
	maximum = 0.072 (at node 6)
Accepted flit rate average= 0.05
	minimum = 0.036 (at node 3)
	maximum = 0.07 (at node 9)
Injected packet length average = 1
Accepted packet length average = 1
Total in-flight flits = 15 (15 measured)
latency change    = 0.172329
throughput change = 0.095
Class 0:
Packet latency average = 21.0442
	minimum = 7
	maximum = 91
Network latency average = 21.0442
	minimum = 7
	maximum = 91
Slowest packet = 34871
Flit latency average = 21.0783
	minimum = 7
	maximum = 91
Slowest flit = 34871
Fragmentation average = 0
	minimum = 0
	maximum = 0
Injected packet rate average = 0.0503125
	minimum = 0.038 (at node 10)
	maximum = 0.064 (at node 14)
Accepted packet rate average = 0.0503125
	minimum = 0.037 (at node 10)
	maximum = 0.064 (at node 11)
Injected flit rate average = 0.0503125
	minimum = 0.038 (at node 10)
	maximum = 0.064 (at node 14)
Accepted flit rate average= 0.0503125
	minimum = 0.037 (at node 10)
	maximum = 0.064 (at node 11)
Injected packet length average = 1
Accepted packet length average = 1
Total in-flight flits = 14 (14 measured)
latency change    = 0.0390344
throughput change = 0.00621118
Class 0:
Packet latency average = 20.7871
	minimum = 7
	maximum = 91
Network latency average = 20.7871
	minimum = 7
	maximum = 91
Slowest packet = 34871
Flit latency average = 20.8127
	minimum = 7
	maximum = 91
Slowest flit = 34871
Fragmentation average = 0
	minimum = 0
	maximum = 0
Injected packet rate average = 0.05075
	minimum = 0.0413333 (at node 7)
	maximum = 0.0593333 (at node 14)
Accepted packet rate average = 0.0505
	minimum = 0.0386667 (at node 3)
	maximum = 0.06 (at node 11)
Injected flit rate average = 0.05075
	minimum = 0.0413333 (at node 7)
	maximum = 0.0593333 (at node 14)
Accepted flit rate average= 0.0505
	minimum = 0.0386667 (at node 3)
	maximum = 0.06 (at node 11)
Injected packet length average = 1
Accepted packet length average = 1
Total in-flight flits = 20 (20 measured)
latency change    = 0.0123683
throughput change = 0.00371287
Class 0:
Packet latency average = 21.2619
	minimum = 7
	maximum = 91
Network latency average = 21.2619
	minimum = 7
	maximum = 91
Slowest packet = 34871
Flit latency average = 21.2771
	minimum = 7
	maximum = 91
Slowest flit = 34871
Fragmentation average = 0
	minimum = 0
	maximum = 0
Injected packet rate average = 0.0501562
	minimum = 0.04 (at node 7)
	maximum = 0.056 (at node 14)
Accepted packet rate average = 0.0501875
	minimum = 0.0415 (at node 13)
	maximum = 0.0565 (at node 11)
Injected flit rate average = 0.0501562
	minimum = 0.04 (at node 7)
	maximum = 0.056 (at node 14)
Accepted flit rate average= 0.0501875
	minimum = 0.0415 (at node 13)
	maximum = 0.0565 (at node 11)
Injected packet length average = 1
Accepted packet length average = 1
Total in-flight flits = 13 (13 measured)
latency change    = 0.0223305
throughput change = 0.00622665
Draining all recorded packets ...
Draining remaining packets ...
Time taken is 3568 cycles
Class 0:
Packet latency average = 19.7857
	minimum = 7
	maximum = 57
Network latency average = 19.7857
	minimum = 7
	maximum = 57
Slowest packet = 36114
Flit latency average = 19.7857
	minimum = 7
	maximum = 57
Slowest flit = 36114
Fragmentation average = 0
	minimum = 0
	maximum = 0
Injected packet rate average = 0.0495
	minimum = 0.032 (at node 6)
	maximum = 0.064 (at node 0)
Accepted packet rate average = 0.04725
	minimum = 0.03 (at node 9)
	maximum = 0.06 (at node 0)
Injected flit rate average = 0.0495
	minimum = 0.032 (at node 6)
	maximum = 0.064 (at node 0)
Accepted flit rate average= 0.04725
	minimum = 0.03 (at node 9)
	maximum = 0.06 (at node 0)
Injected packet length average = 1
Accepted packet length average = 1
Total in-flight flits = 18 (0 measured)
latency change    = 1
throughput change = 1
Class 0:
Packet latency average = 22.053
	minimum = 7
	maximum = 108
Network latency average = 22.0456
	minimum = 7
	maximum = 108
Slowest packet = 36693
Flit latency average = 22.0456
	minimum = 7
	maximum = 108
Slowest flit = 36693
Fragmentation average = 0
	minimum = 0
	maximum = 0
Injected packet rate average = 0.0515625
	minimum = 0.037 (at node 6)
	maximum = 0.063 (at node 7)
Accepted packet rate average = 0.0506875
	minimum = 0.037 (at node 9)
	maximum = 0.061 (at node 13)
Injected flit rate average = 0.0515625
	minimum = 0.037 (at node 6)
	maximum = 0.063 (at node 7)
Accepted flit rate average= 0.0506875
	minimum = 0.037 (at node 9)
	maximum = 0.061 (at node 13)
Injected packet length average = 1
Accepted packet length average = 1
Total in-flight flits = 14 (0 measured)
latency change    = 0.102812
throughput change = 0.0678175
Class 0:
Packet latency average = 21.6603
	minimum = 7
	maximum = 55
Network latency average = 21.6603
	minimum = 7
	maximum = 55
Slowest packet = 37136
Flit latency average = 21.6603
	minimum = 7
	maximum = 55
Slowest flit = 37136
Fragmentation average = 0
	minimum = 0
	maximum = 0
Injected packet rate average = 0.053375
	minimum = 0.04 (at node 8)
	maximum = 0.068 (at node 7)
Accepted packet rate average = 0.05225
	minimum = 0.04 (at node 2)
	maximum = 0.068 (at node 13)
Injected flit rate average = 0.053375
	minimum = 0.04 (at node 8)
	maximum = 0.068 (at node 7)
Accepted flit rate average= 0.05225
	minimum = 0.04 (at node 2)
	maximum = 0.068 (at node 13)
Injected packet length average = 1
Accepted packet length average = 1
Total in-flight flits = 23 (0 measured)
latency change    = 0.0181315
[...]
Flit latency average = 20.3442
	minimum = 7
	maximum = 53
Slowest flit = 138761
Fragmentation average = 0
	minimum = 0
	maximum = 0
Injected packet rate average = 0.048375
	minimum = 0.037 (at node 11)
	maximum = 0.061 (at node 5)
Accepted packet rate average = 0.04775
	minimum = 0.037 (at node 14)
	maximum = 0.061 (at node 5)
Injected flit rate average = 0.048375
	minimum = 0.037 (at node 11)
	maximum = 0.061 (at node 5)
Accepted flit rate average= 0.04775
	minimum = 0.037 (at node 14)
	maximum = 0.061 (at node 5)
Injected packet length average = 1
Accepted packet length average = 1
Total in-flight flits = 10 (0 measured)
latency change    = 0.0216776
throughput change = 0.026178
Class 0:
Packet latency average = 22.76
	minimum = 7
	maximum = 79
Network latency average = 22.76
	minimum = 7
	maximum = 79
Slowest packet = 139186
Flit latency average = 22.76
	minimum = 7
	maximum = 79
Slowest flit = 139186
Fragmentation average = 0
	minimum = 0
	maximum = 0
Injected packet rate average = 0.0545
	minimum = 0.034 (at node 8)
	maximum = 0.09 (at node 7)
Accepted packet rate average = 0.053125
	minimum = 0.038 (at node 1)
	maximum = 0.086 (at node 13)
Injected flit rate average = 0.0545
	minimum = 0.034 (at node 8)
	maximum = 0.09 (at node 7)
Accepted flit rate average= 0.053125
	minimum = 0.038 (at node 1)
	maximum = 0.086 (at node 13)
Injected packet length average = 1
Accepted packet length average = 1
Total in-flight flits = 21 (0 measured)
latency change    = 0.106141
throughput change = 0.101176
Warmed up ...Time used is 1500 cycles
Class 0:
Packet latency average = 25.9466
	minimum = 7
	maximum = 127
Network latency average = 25.8626
	minimum = 7
	maximum = 127
Slowest packet = 139600
Flit latency average = 25.9469
	minimum = 7
	maximum = 127
Slowest flit = 139600
Fragmentation average = 0
	minimum = 0
	maximum = 0
Injected packet rate average = 0.052125
	minimum = 0.04 (at node 1)
	maximum = 0.07 (at node 9)
Accepted packet rate average = 0.05175
	minimum = 0.04 (at node 15)
	maximum = 0.068 (at node 3)
Injected flit rate average = 0.052125
	minimum = 0.04 (at node 1)
	maximum = 0.07 (at node 9)
Accepted flit rate average= 0.05175
	minimum = 0.04 (at node 15)
	maximum = 0.068 (at node 3)
Injected packet length average = 1
Accepted packet length average = 1
Total in-flight flits = 24 (24 measured)
latency change    = 0.122813
throughput change = 0.02657
Class 0:
Packet latency average = 24.3844
	minimum = 7
	maximum = 167
Network latency average = 24.2915
	minimum = 7
	maximum = 155
Slowest packet = 139718
Flit latency average = 24.3745
	minimum = 7
	maximum = 155
Slowest flit = 139718
Fragmentation average = 0
	minimum = 0
	maximum = 0
Injected packet rate average = 0.0509375
	minimum = 0.036 (at node 1)
	maximum = 0.06 (at node 9)
Accepted packet rate average = 0.0510625
	minimum = 0.037 (at node 4)
	maximum = 0.057 (at node 6)
Injected flit rate average = 0.0509375
	minimum = 0.036 (at node 1)
	maximum = 0.06 (at node 9)
Accepted flit rate average= 0.0510625
	minimum = 0.037 (at node 4)
	maximum = 0.057 (at node 6)
Injected packet length average = 1
Accepted packet length average = 1
Total in-flight flits = 19 (19 measured)
latency change    = 0.0640631
throughput change = 0.0134639
Class 0:
Packet latency average = 23.4458
	minimum = 7
	maximum = 167
Network latency average = 23.3826
	minimum = 7
	maximum = 155
Slowest packet = 139718
Flit latency average = 23.4555
	minimum = 7
	maximum = 155
Slowest flit = 139718
Fragmentation average = 0
	minimum = 0
	maximum = 0
Injected packet rate average = 0.0497083
	minimum = 0.0406667 (at node 1)
	maximum = 0.0586667 (at node 9)
Accepted packet rate average = 0.0496667
	minimum = 0.042 (at node 4)
	maximum = 0.0566667 (at node 6)
Injected flit rate average = 0.0497083
	minimum = 0.0406667 (at node 1)
	maximum = 0.0586667 (at node 9)
Accepted flit rate average= 0.0496667
	minimum = 0.042 (at node 4)
	maximum = 0.0566667 (at node 6)
Injected packet length average = 1
Accepted packet length average = 1
Total in-flight flits = 22 (22 measured)
latency change    = 0.0400349
throughput change = 0.028104
Class 0:
Packet latency average = 22.7524
	minimum = 7
	maximum = 167
Network latency average = 22.7051
	minimum = 7
	maximum = 155
Slowest packet = 139718
Flit latency average = 22.7689
	minimum = 7
	maximum = 155
Slowest flit = 139718
Fragmentation average = 0
	minimum = 0
	maximum = 0
Injected packet rate average = 0.0492187
	minimum = 0.04 (at node 1)
	maximum = 0.054 (at node 9)
Accepted packet rate average = 0.0495
	minimum = 0.041 (at node 4)
	maximum = 0.054 (at node 11)
Injected flit rate average = 0.0492187
	minimum = 0.04 (at node 1)
	maximum = 0.054 (at node 9)
Accepted flit rate average= 0.0495
	minimum = 0.041 (at node 4)
	maximum = 0.054 (at node 11)
Injected packet length average = 1
Accepted packet length average = 1
Total in-flight flits = 12 (12 measured)
latency change    = 0.0304747
throughput change = 0.003367
Class 0:
Packet latency average = 22.4679
	minimum = 7
	maximum = 167
Network latency average = 22.43
	minimum = 7
	maximum = 155
Slowest packet = 139718
Flit latency average = 22.4843
	minimum = 7
	maximum = 155
Slowest flit = 139718
Fragmentation average = 0
	minimum = 0
	maximum = 0
Injected packet rate average = 0.04915
	minimum = 0.0404 (at node 1)
	maximum = 0.0576 (at node 14)
Accepted packet rate average = 0.04925
	minimum = 0.0408 (at node 4)
	maximum = 0.058 (at node 11)
Injected flit rate average = 0.04915
	minimum = 0.0404 (at node 1)
	maximum = 0.0576 (at node 14)
Accepted flit rate average= 0.04925
	minimum = 0.0408 (at node 4)
	maximum = 0.058 (at node 11)
Injected packet length average = 1
Accepted packet length average = 1
Total in-flight flits = 17 (17 measured)
latency change    = 0.012661
throughput change = 0.00507614
Draining all recorded packets ...
Draining remaining packets ...
Time taken is 4074 cycles
Class 0:
Packet latency average = 20.7177
	minimum = 7
	maximum = 62
Network latency average = 20.7177
	minimum = 7
	maximum = 62
Slowest packet = 141651
Flit latency average = 20.7177
	minimum = 7
	maximum = 62
Slowest flit = 141651
Fragmentation average = 0
	minimum = 0
	maximum = 0
Injected packet rate average = 0.048875
	minimum = 0.032 (at node 11)
	maximum = 0.06 (at node 0)
Accepted packet rate average = 0.0465
	minimum = 0.03 (at node 14)
	maximum = 0.06 (at node 0)
Injected flit rate average = 0.048875
	minimum = 0.032 (at node 11)
	maximum = 0.06 (at node 0)
Accepted flit rate average= 0.0465
	minimum = 0.03 (at node 14)
	maximum = 0.06 (at node 0)
Injected packet length average = 1
Accepted packet length average = 1
Total in-flight flits = 19 (0 measured)
latency change    = 1
throughput change = 1
Class 0:
Packet latency average = 21.1039
	minimum = 7
	maximum = 62
Network latency average = 21.1039
	minimum = 7
	maximum = 62
Slowest packet = 141651
Flit latency average = 21.1039
	minimum = 7
	maximum = 62
Slowest flit = 141651
Fragmentation average = 0
	minimum = 0
	maximum = 0
Injected packet rate average = 0.0485
	minimum = 0.038 (at node 10)
	maximum = 0.067 (at node 0)
Accepted packet rate average = 0.0475
	minimum = 0.037 (at node 10)
	maximum = 0.067 (at node 0)
Injected flit rate average = 0.0485
	minimum = 0.038 (at node 10)
	maximum = 0.067 (at node 0)
Accepted flit rate average= 0.0475
	minimum = 0.037 (at node 10)
	maximum = 0.067 (at node 0)
Injected packet length average = 1
Accepted packet length average = 1
Total in-flight flits = 16 (0 measured)
latency change    = 0.0183002
throughput change = 0.0210526
Class 0:
Packet latency average = 23.2555
	minimum = 7
	maximum = 97
Network latency average = 23.2555
	minimum = 7
	maximum = 97
Slowest packet = 142310
Flit latency average = 23.2555
	minimum = 7
	maximum = 97
Slowest flit = 142310
Fragmentation average = 0
	minimum = 0
	maximum = 0
Injected packet rate average = 0.051375
	minimum = 0.04 (at node 3)
	maximum = 0.074 (at node 4)
Accepted packet rate average = 0.050875
	minimum = 0.038 (at node 12)
	maximum = 0.074 (at node 1)
Injected flit rate average = 0.051375
	minimum = 0.04 (at node 3)
	maximum = 0.074 (at node 4)
Accepted flit rate average= 0.050875
	minimum = 0.038 (at node 12)
	maximum = 0.074 (at node 1)
Injected packet length average = 1
Accepted packet length average = 1
Total in-flight flits = 20 (0 measured)
latency change    = 0.0925191
throughput change = 0.0663391
Warmed up ...Time used is 1500 cycles
Class 0:
Packet latency average = 22.7983
	minimum = 7
	maximum = 81
Network latency average = 22.7983
	minimum = 7
	maximum = 81
Slowest packet = 142601
Flit latency average = 23.3194
	minimum = 7
	maximum = 81
Slowest flit = 142601
Fragmentation average = 0
	minimum = 0
	maximum = 0
Injected packet rate average = 0.046875
	minimum = 0.028 (at node 7)
	maximum = 0.062 (at node 9)
Accepted packet rate average = 0.04775
	minimum = 0.026 (at node 13)
	maximum = 0.066 (at node 3)
Injected flit rate average = 0.046875
	minimum = 0.028 (at node 7)
	maximum = 0.062 (at node 9)
Accepted flit rate average= 0.04775
	minimum = 0.026 (at node 13)
	maximum = 0.066 (at node 3)
Injected packet length average = 1
Accepted packet length average = 1
Total in-flight flits = 13 (13 measured)
latency change    = 0.0200535
throughput change = 0.065445
Class 0:
Packet latency average = 21.4865
	minimum = 7
	maximum = 81
Network latency average = 21.4865
	minimum = 7
	maximum = 81
Slowest packet = 142601
Flit latency average = 21.7691
	minimum = 7
	maximum = 81
Slowest flit = 142601
Fragmentation average = 0
	minimum = 0
	maximum = 0
Injected packet rate average = 0.049625
	minimum = 0.041 (at node 7)
	maximum = 0.059 (at node 5)
Accepted packet rate average = 0.0498125
	minimum = 0.04 (at node 13)
	maximum = 0.058 (at node 3)
Injected flit rate average = 0.049625
	minimum = 0.041 (at node 7)
	maximum = 0.059 (at node 5)
Accepted flit rate average= 0.0498125
	minimum = 0.04 (at node 13)
	maximum = 0.058 (at node 3)
Injected packet length average = 1
Accepted packet length average = 1
Total in-flight flits = 17 (17 measured)
latency change    = 0.0610549
throughput change = 0.0414053
Class 0:
Packet latency average = 21.2584
	minimum = 7
	maximum = 81
Network latency average = 21.2584
	minimum = 7
	maximum = 81
Slowest packet = 142601
Flit latency average = 21.4537
	minimum = 7
	maximum = 81
Slowest flit = 142601
Fragmentation average = 0
	minimum = 0
	maximum = 0
Injected packet rate average = 0.0487917
	minimum = 0.0393333 (at node 14)
	maximum = 0.0573333 (at node 5)
Accepted packet rate average = 0.0490417
	minimum = 0.0386667 (at node 11)
	maximum = 0.058 (at node 9)
Injected flit rate average = 0.0487917
	minimum = 0.0393333 (at node 14)
	maximum = 0.0573333 (at node 5)
Accepted flit rate average= 0.0490417
	minimum = 0.0386667 (at node 11)
	maximum = 0.058 (at node 9)
Injected packet length average = 1
Accepted packet length average = 1
Total in-flight flits = 14 (14 measured)
latency change    = 0.010728
throughput change = 0.0157179
Class 0:
Packet latency average = 21.2555
	minimum = 7
	maximum = 81
Network latency average = 21.2555
	minimum = 7
	maximum = 81
Slowest packet = 142601
Flit latency average = 21.4019
	minimum = 7
	maximum = 81
Slowest flit = 142601
Fragmentation average = 0
	minimum = 0
	maximum = 0
Injected packet rate average = 0.0491562
	minimum = 0.0415 (at node 14)
	maximum = 0.057 (at node 6)
Accepted packet rate average = 0.0490625
	minimum = 0.0415 (at node 11)
	maximum = 0.0565 (at node 5)
Injected flit rate average = 0.0491562
	minimum = 0.0415 (at node 14)
	maximum = 0.057 (at node 6)
Accepted flit rate average= 0.0490625
	minimum = 0.0415 (at node 11)
	maximum = 0.0565 (at node 5)
Injected packet length average = 1
Accepted packet length average = 1
Total in-flight flits = 23 (23 measured)
latency change    = 0.000138463
throughput change = 0.000424628
Class 0:
Packet latency average = 21.0093
	minimum = 7
	maximum = 81
Network latency average = 21.0093
	minimum = 7
	maximum = 81
Slowest packet = 142601
Flit latency average = 21.1293
	minimum = 7
	maximum = 81
Slowest flit = 142601
Fragmentation average = 0
	minimum = 0
	maximum = 0
Injected packet rate average = 0.048725
	minimum = 0.0428 (at node 14)
	maximum = 0.0596 (at node 6)
Accepted packet rate average = 0.048925
	minimum = 0.0428 (at node 11)
	maximum = 0.0596 (at node 9)
Injected flit rate average = 0.048725
	minimum = 0.0428 (at node 14)
	maximum = 0.0596 (at node 6)
Accepted flit rate average= 0.048925
	minimum = 0.0428 (at node 11)
	maximum = 0.0596 (at node 9)
Injected packet length average = 1
Accepted packet length average = 1
Total in-flight flits = 12 (12 measured)
latency change    = 0.0117182
throughput change = 0.00281042
Draining all recorded packets ...
Draining remaining packets ...
Time taken is 4070 cycles
Class 0:
Packet latency average = 20.8826
	minimum = 7
	maximum = 62
Network latency average = 20.8826
	minimum = 7
	maximum = 62
Slowest packet = 144778
Flit latency average = 20.8826
	minimum = 7
	maximum = 62
Slowest flit = 144778
Fragmentation average = 0
	minimum = 0
	maximum = 0
Injected packet rate average = 0.05675
	minimum = 0.036 (at node 12)
	maximum = 0.076 (at node 6)
Accepted packet rate average = 0.055375
	minimum = 0.034 (at node 3)
	maximum = 0.074 (at node 9)
Injected flit rate average = 0.05675
	minimum = 0.036 (at node 12)
	maximum = 0.076 (at node 6)
Accepted flit rate average= 0.055375
	minimum = 0.034 (at node 3)
	maximum = 0.074 (at node 9)
Injected packet length average = 1
Accepted packet length average = 1
Total in-flight flits = 11 (0 measured)
latency change    = 1
throughput change = 1
Class 0:
Packet latency average = 20.9117
	minimum = 7
	maximum = 62
Network latency average = 20.9117
	minimum = 7
	maximum = 62
Slowest packet = 144778
Flit latency average = 20.9117
	minimum = 7
	maximum = 62
Slowest flit = 144778
Fragmentation average = 0
	minimum = 0
	maximum = 0
Injected packet rate average = 0.0526875
	minimum = 0.043 (at node 8)
	maximum = 0.063 (at node 6)
Accepted packet rate average = 0.0516875
	minimum = 0.041 (at node 2)
	maximum = 0.062 (at node 9)
Injected flit rate average = 0.0526875
	minimum = 0.043 (at node 8)
	maximum = 0.063 (at node 6)
Accepted flit rate average= 0.0516875
	minimum = 0.041 (at node 2)
	maximum = 0.062 (at node 9)
Injected packet length average = 1
Accepted packet length average = 1
Total in-flight flits = 16 (0 measured)
latency change    = 0.00139207
throughput change = 0.0713422
Class 0:
Packet latency average = 21.1884
	minimum = 7
	maximum = 65
Network latency average = 21.1884
	minimum = 7
	maximum = 65
Slowest packet = 145352
Flit latency average = 21.1884
	minimum = 7
	maximum = 65
Slowest flit = 145352
Fragmentation average = 0
	minimum = 0
	maximum = 0
Injected packet rate average = 0.0495
	minimum = 0.028 (at node 11)
	maximum = 0.062 (at node 10)
Accepted packet rate average = 0.04975
	minimum = 0.026 (at node 14)
	maximum = 0.062 (at node 10)
Injected flit rate average = 0.0495
	minimum = 0.028 (at node 11)
	maximum = 0.062 (at node 10)
Accepted flit rate average= 0.04975
	minimum = 0.026 (at node 14)
	maximum = 0.062 (at node 10)
Injected packet length average = 1
Accepted packet length average = 1
Total in-flight flits = 14 (0 measured)
latency change    = 0.0130596
throughput change = 0.0389447
Warmed up ...Time used is 1500 cycles
Class 0:
Packet latency average = 22.842
	minimum = 7
	maximum = 90
Network latency average = 22.8395
	minimum = 7
	maximum = 90
Slowest packet = 145965
Flit latency average = 23.2076
	minimum = 7
	maximum = 90
Slowest flit = 145965
Fragmentation average = 0
	minimum = 0
	maximum = 0
Injected packet rate average = 0.0535
	minimum = 0.04 (at node 11)
	maximum = 0.074 (at node 9)
Accepted packet rate average = 0.052375
	minimum = 0.04 (at node 15)
	maximum = 0.072 (at node 6)
Injected flit rate average = 0.0535
	minimum = 0.04 (at node 11)
	maximum = 0.074 (at node 9)
Accepted flit rate average= 0.052375
	minimum = 0.04 (at node 15)
	maximum = 0.072 (at node 6)
Injected packet length average = 1
Accepted packet length average = 1
Total in-flight flits = 23 (23 measured)
latency change    = 0.0723901
throughput change = 0.0501193
Class 0:
Packet latency average = 22.6302
	minimum = 7
	maximum = 90
Network latency average = 22.629
	minimum = 7
	maximum = 90
Slowest packet = 145965
Flit latency average = 22.8129
	minimum = 7
	maximum = 90
Slowest flit = 145965
Fragmentation average = 0
	minimum = 0
	maximum = 0
Injected packet rate average = 0.053625
	minimum = 0.04 (at node 4)
	maximum = 0.067 (at node 9)
Accepted packet rate average = 0.0534375
	minimum = 0.039 (at node 1)
	maximum = 0.066 (at node 13)
Injected flit rate average = 0.053625
	minimum = 0.04 (at node 4)
	maximum = 0.067 (at node 9)
Accepted flit rate average= 0.0534375
	minimum = 0.039 (at node 1)
	maximum = 0.066 (at node 13)
Injected packet length average = 1
Accepted packet length average = 1
Total in-flight flits = 17 (17 measured)
latency change    = 0.00935799
throughput change = 0.019883
Class 0:
Packet latency average = 22.5027
	minimum = 7
	maximum = 90
Network latency average = 22.502
	minimum = 7
	maximum = 90
Slowest packet = 145965
Flit latency average = 22.6253
	minimum = 7
	maximum = 90
Slowest flit = 145965
Fragmentation average = 0
	minimum = 0
	maximum = 0
Injected packet rate average = 0.0539583
	minimum = 0.0406667 (at node 11)
	maximum = 0.064 (at node 12)
Accepted packet rate average = 0.0537083
	minimum = 0.0413333 (at node 14)
	maximum = 0.064 (at node 3)
Injected flit rate average = 0.0539583
	minimum = 0.0406667 (at node 11)
	maximum = 0.064 (at node 12)
Accepted flit rate average= 0.0537083
	minimum = 0.0413333 (at node 14)
	maximum = 0.064 (at node 3)
Injected packet length average = 1
Accepted packet length average = 1
Total in-flight flits = 20 (20 measured)
latency change    = 0.00566407
throughput change = 0.00504267
Class 0:
Packet latency average = 22.1972
	minimum = 7
	maximum = 90
Network latency average = 22.1966
	minimum = 7
	maximum = 90
Slowest packet = 145965
Flit latency average = 22.2914
	minimum = 7
	maximum = 90
Slowest flit = 145965
Fragmentation average = 0
	minimum = 0
	maximum = 0
Injected packet rate average = 0.0539375
	minimum = 0.0425 (at node 4)
	maximum = 0.0645 (at node 12)
Accepted packet rate average = 0.0538438
	minimum = 0.043 (at node 1)
	maximum = 0.0645 (at node 3)
Injected flit rate average = 0.0539375
	minimum = 0.0425 (at node 4)
	maximum = 0.0645 (at node 12)
Accepted flit rate average= 0.0538438
	minimum = 0.043 (at node 1)
	maximum = 0.0645 (at node 3)
Injected packet length average = 1
Accepted packet length average = 1
Total in-flight flits = 17 (17 measured)
latency change    = 0.0137654
throughput change = 0.00251499
Draining all recorded packets ...
Draining remaining packets ...
Time taken is 3582 cycles
====== Overall Traffic Statistics ======
====== Traffic class 0 ======
Packet latency average = 21.6755 (50 samples)
	minimum = 7 (50 samples)
	maximum = 100.64 (50 samples)
Network latency average = 21.6501 (50 samples)
	minimum = 7 (50 samples)
	maximum = 99.76 (50 samples)
Flit latency average = 21.7078 (50 samples)
	minimum = 7 (50 samples)
	maximum = 100.04 (50 samples)
Fragmentation average = 0 (50 samples)
	minimum = 0 (50 samples)
	maximum = 0 (50 samples)
Injected packet rate average = 0.0500183 (50 samples)
	minimum = 0.0415173 (50 samples)
	maximum = 0.0581267 (50 samples)
Accepted packet rate average = 0.0500013 (50 samples)
	minimum = 0.0417033 (50 samples)
	maximum = 0.0580867 (50 samples)
Injected flit rate average = 0.0500183 (50 samples)
	minimum = 0.0415173 (50 samples)
	maximum = 0.0581267 (50 samples)
Accepted flit rate average = 0.0500013 (50 samples)
	minimum = 0.0417033 (50 samples)
	maximum = 0.0580867 (50 samples)
Injected packet size average = 1 (50 samples)
Accepted packet size average = 1 (50 samples)
Hops average = 3.49742 (50 samples)
Total run time 2.30697
