BEGIN Configuration File: /tmp/tmpmdy9celo.cfg
topology = mesh;
k = 4;
n = 2;
routing_function = gnn_port_score_route_4x4_v4;
num_vcs = 4;
vc_buf_size = 4;
wait_for_tail_credit = 1;
vc_allocator = islip;
sw_allocator = islip;
alloc_iters = 1;
credit_delay = 2;
routing_delay = 1;
vc_alloc_delay = 1;
sw_alloc_delay = 1;
input_speedup = 2;
output_speedup = 1;
internal_speedup = 1.0;
traffic = uniform;
packet_size = 1;
sim_type = latency;
injection_rate = 0.05;
warmup_periods = 3;
sample_period = 500;
sim_count = 50;
seed = 1;
link_failures = 0;
fail_seed = 101;

END Configuration File: /tmp/tmpmdy9celo.cfg
Class 0:
Packet latency average = 20.48
	minimum = 7
	maximum = 45
Network latency average = 20.48
	minimum = 7
	maximum = 45
Slowest packet = 46
Flit latency average = 20.48
	minimum = 7
	maximum = 45
Slowest flit = 46
Fragmentation average = 0
	minimum = 0
	maximum = 0
Injected packet rate average = 0.049125
	minimum = 0.032 (at node 9)
	maximum = 0.074 (at node 1)
Accepted packet rate average = 0.046875
	minimum = 0.03 (at node 6)
	maximum = 0.062 (at node 9)
Injected flit rate average = 0.049125
	minimum = 0.032 (at node 9)
	maximum = 0.074 (at node 1)
Accepted flit rate average= 0.046875
	minimum = 0.03 (at node 6)
	maximum = 0.062 (at node 9)
Injected packet length average = 1
Accepted packet length average = 1
Total in-flight flits = 18 (0 measured)
latency change    = 1
throughput change = 1
Class 0:
Packet latency average = 20.5616
	minimum = 7
	maximum = 82
Network latency average = 20.5616
	minimum = 7
	maximum = 82
Slowest packet = 440
Flit latency average = 20.5616
	minimum = 7
	maximum = 82
Slowest flit = 440
Fragmentation average = 0
	minimum = 0
	maximum = 0
Injected packet rate average = 0.0505
	minimum = 0.038 (at node 9)
	maximum = 0.073 (at node 1)
Accepted packet rate average = 0.04975
	minimum = 0.032 (at node 6)
	maximum = 0.061 (at node 9)
Injected flit rate average = 0.0505
	minimum = 0.038 (at node 9)
	maximum = 0.073 (at node 1)
Accepted flit rate average= 0.04975
	minimum = 0.032 (at node 6)
	maximum = 0.061 (at node 9)
Injected packet length average = 1
Accepted packet length average = 1
Total in-flight flits = 12 (0 measured)
latency change    = 0.00396652
throughput change = 0.0577889
Class 0:
Packet latency average = 19.701
	minimum = 7
	maximum = 45
Network latency average = 19.701
	minimum = 7
	maximum = 45
Slowest packet = 856
Flit latency average = 19.701
	minimum = 7
	maximum = 45
Slowest flit = 856
Fragmentation average = 0
	minimum = 0
	maximum = 0
Injected packet rate average = 0.05
	minimum = 0.03 (at node 10)
	maximum = 0.068 (at node 12)
Accepted packet rate average = 0.04975
	minimum = 0.034 (at node 6)
	maximum = 0.064 (at node 9)
Injected flit rate average = 0.05
	minimum = 0.03 (at node 10)
	maximum = 0.068 (at node 12)
Accepted flit rate average= 0.04975
	minimum = 0.034 (at node 6)
	maximum = 0.064 (at node 9)
Injected packet length average = 1
Accepted packet length average = 1
Total in-flight flits = 14 (0 measured)
latency change    = 0.0436807
throughput change = 0
Warmed up ...Time used is 1500 cycles
Class 0:
Packet latency average = 19.3479
	minimum = 7
	maximum = 48
Network latency average = 19.3479
	minimum = 7
	maximum = 48
Slowest packet = 1344
Flit latency average = 19.4235
	minimum = 7
	maximum = 48
Slowest flit = 1344
Fragmentation average = 0
	minimum = 0
	maximum = 0
Injected packet rate average = 0.052875
	minimum = 0.036 (at node 11)
	maximum = 0.068 (at node 15)
Accepted packet rate average = 0.053125
	minimum = 0.026 (at node 7)
	maximum = 0.07 (at node 1)
Injected flit rate average = 0.052875
	minimum = 0.036 (at node 11)
	maximum = 0.068 (at node 15)
Accepted flit rate average= 0.053125
	minimum = 0.026 (at node 7)
	maximum = 0.07 (at node 1)
Injected packet length average = 1
Accepted packet length average = 1
Total in-flight flits = 12 (12 measured)
latency change    = 0.0182486
throughput change = 0.0635294
Class 0:
Packet latency average = 20.0281
	minimum = 7
	maximum = 48
Network latency average = 20.0281
	minimum = 7
	maximum = 48
Slowest packet = 1344
Flit latency average = 20.0542
	minimum = 7
	maximum = 48
Slowest flit = 1344
Fragmentation average = 0
	minimum = 0
	maximum = 0
Injected packet rate average = 0.054125
	minimum = 0.04 (at node 11)
	maximum = 0.067 (at node 7)
Accepted packet rate average = 0.0541875
	minimum = 0.045 (at node 7)
	maximum = 0.063 (at node 1)
Injected flit rate average = 0.054125
	minimum = 0.04 (at node 11)
	maximum = 0.067 (at node 7)
Accepted flit rate average= 0.0541875
	minimum = 0.045 (at node 7)
	maximum = 0.063 (at node 1)
Injected packet length average = 1
Accepted packet length average = 1
Total in-flight flits = 13 (13 measured)
latency change    = 0.0339624
throughput change = 0.0196078
Class 0:
Packet latency average = 19.9161
	minimum = 7
	maximum = 48
Network latency average = 19.9161
	minimum = 7
	maximum = 48
Slowest packet = 1344
Flit latency average = 19.9352
	minimum = 7
	maximum = 48
Slowest flit = 1344
Fragmentation average = 0
	minimum = 0
	maximum = 0
Injected packet rate average = 0.0525833
	minimum = 0.0413333 (at node 0)
	maximum = 0.0606667 (at node 7)
Accepted packet rate average = 0.0527083
	minimum = 0.042 (at node 12)
	maximum = 0.0626667 (at node 14)
Injected flit rate average = 0.0525833
	minimum = 0.0413333 (at node 0)
	maximum = 0.0606667 (at node 7)
Accepted flit rate average= 0.0527083
	minimum = 0.042 (at node 12)
	maximum = 0.0626667 (at node 14)
Injected packet length average = 1
Accepted packet length average = 1
Total in-flight flits = 11 (11 measured)
latency change    = 0.00562706
throughput change = 0.0280632
Class 0:
Packet latency average = 19.9396
	minimum = 7
	maximum = 48
Network latency average = 19.9396
	minimum = 7
	maximum = 48
Slowest packet = 1344
Flit latency average = 19.954
	minimum = 7
	maximum = 48
Slowest flit = 1344
Fragmentation average = 0
	minimum = 0
	maximum = 0
Injected packet rate average = 0.051625
	minimum = 0.0405 (at node 0)
	maximum = 0.0615 (at node 1)
Accepted packet rate average = 0.0516563
	minimum = 0.043 (at node 12)
	maximum = 0.0595 (at node 1)
Injected flit rate average = 0.051625
	minimum = 0.0405 (at node 0)
	maximum = 0.0615 (at node 1)
Accepted flit rate average= 0.0516563
	minimum = 0.043 (at node 12)
	maximum = 0.0595 (at node 1)
Injected packet length average = 1
Accepted packet length average = 1
Total in-flight flits = 13 (13 measured)
latency change    = 0.00118007
throughput change = 0.020367
Draining all recorded packets ...
Draining remaining packets ...
Time taken is 3577 cycles
Class 0:
Packet latency average = 20.1338
	minimum = 7
	maximum = 57
Network latency average = 20.1314
	minimum = 7
	maximum = 57
Slowest packet = 3245
Flit latency average = 20.1314
	minimum = 7
	maximum = 57
Slowest flit = 3245
Fragmentation average = 0
	minimum = 0
	maximum = 0
Injected packet rate average = 0.052875
	minimum = 0.038 (at node 3)
	maximum = 0.072 (at node 5)
Accepted packet rate average = 0.051375
	minimum = 0.038 (at node 2)
	maximum = 0.076 (at node 13)
Injected flit rate average = 0.052875
	minimum = 0.038 (at node 3)
	maximum = 0.072 (at node 5)
Accepted flit rate average= 0.051375
	minimum = 0.038 (at node 2)
	maximum = 0.076 (at node 13)
Injected packet length average = 1
Accepted packet length average = 1
Total in-flight flits = 12 (0 measured)
latency change    = 1
throughput change = 1
Class 0:
Packet latency average = 20.0835
	minimum = 7
	maximum = 57
Network latency average = 20.0823
	minimum = 7
	maximum = 57
Slowest packet = 3245
Flit latency average = 20.0823
	minimum = 7
	maximum = 57
Slowest flit = 3245
Fragmentation average = 0
	minimum = 0
	maximum = 0
Injected packet rate average = 0.05225
	minimum = 0.04 (at node 11)
	maximum = 0.067 (at node 2)
Accepted packet rate average = 0.050875
	minimum = 0.039 (at node 7)
	maximum = 0.063 (at node 4)
Injected flit rate average = 0.05225
	minimum = 0.04 (at node 11)
	maximum = 0.067 (at node 2)
Accepted flit rate average= 0.050875
	minimum = 0.039 (at node 7)
	maximum = 0.063 (at node 4)
Injected packet length average = 1
Accepted packet length average = 1
Total in-flight flits = 22 (0 measured)
latency change    = 0.00250364
throughput change = 0.00982801
Class 0:
Packet latency average = 21.1323
	minimum = 7
	maximum = 48
Network latency average = 21.1323
	minimum = 7
	maximum = 48
Slowest packet = 3852
Flit latency average = 21.1323
	minimum = 7
	maximum = 48
Slowest flit = 3852
Fragmentation average = 0
	minimum = 0
	maximum = 0
Injected packet rate average = 0.05575
	minimum = 0.03 (at node 10)
	maximum = 0.078 (at node 1)
Accepted packet rate average = 0.05575
	minimum = 0.04 (at node 10)
	maximum = 0.07 (at node 15)
Injected flit rate average = 0.05575
	minimum = 0.03 (at node 10)
	maximum = 0.078 (at node 1)
Accepted flit rate average= 0.05575
	minimum = 0.04 (at node 10)
	maximum = 0.07 (at node 15)
Injected packet length average = 1
Accepted packet length average = 1
Total in-flight flits = 22 (0 measured)
latency change    = 0.0496278
throughput change = 0.0874439
Warmed up ...Time used is 1500 cycles
Class 0:
Packet latency average = 19.6399
	minimum = 7
	maximum = 41
Network latency average = 19.6399
	minimum = 7
	maximum = 41
Slowest packet = 4272
Flit latency average = 19.9828
	minimum = 7
	maximum = 41
Slowest flit = 4272
Fragmentation average = 0
	minimum = 0
	maximum = 0
Injected packet rate average = 0.049625
	minimum = 0.04 (at node 1)
	maximum = 0.064 (at node 2)
Accepted packet rate average = 0.051
	minimum = 0.034 (at node 7)
	maximum = 0.068 (at node 4)
Injected flit rate average = 0.049625
	minimum = 0.04 (at node 1)
	maximum = 0.064 (at node 2)
Accepted flit rate average= 0.051
	minimum = 0.034 (at node 7)
	maximum = 0.068 (at node 4)
Injected packet length average = 1
Accepted packet length average = 1
Total in-flight flits = 11 (11 measured)
latency change    = 0.0759877
throughput change = 0.0931373
Class 0:
Packet latency average = 19.7841
	minimum = 7
	maximum = 46
Network latency average = 19.7841
	minimum = 7
	maximum = 46
Slowest packet = 4884
Flit latency average = 19.955
	minimum = 7
	maximum = 46
Slowest flit = 4884
Fragmentation average = 0
	minimum = 0
	maximum = 0
Injected packet rate average = 0.0496875
	minimum = 0.04 (at node 8)
	maximum = 0.062 (at node 5)
Accepted packet rate average = 0.05
	minimum = 0.042 (at node 10)
	maximum = 0.058 (at node 4)
Injected flit rate average = 0.0496875
	minimum = 0.04 (at node 8)
	maximum = 0.062 (at node 5)
Accepted flit rate average= 0.05
	minimum = 0.042 (at node 10)
	maximum = 0.058 (at node 4)
Injected packet length average = 1
Accepted packet length average = 1
Total in-flight flits = 17 (17 measured)
latency change    = 0.00728694
throughput change = 0.02
Class 0:
Packet latency average = 20.2175
	minimum = 7
	maximum = 46
Network latency average = 20.2175
	minimum = 7
	maximum = 46
Slowest packet = 4884
Flit latency average = 20.3236
	minimum = 7
	maximum = 46
Slowest flit = 4884
Fragmentation average = 0
	minimum = 0
	maximum = 0
Injected packet rate average = 0.0497917
	minimum = 0.0386667 (at node 15)
	maximum = 0.0626667 (at node 5)
Accepted packet rate average = 0.0499583
	minimum = 0.04 (at node 10)
	maximum = 0.0593333 (at node 13)
Injected flit rate average = 0.0497917
	minimum = 0.0386667 (at node 15)
	maximum = 0.0626667 (at node 5)
Accepted flit rate average= 0.0499583
	minimum = 0.04 (at node 10)
	maximum = 0.0593333 (at node 13)
Injected packet length average = 1
Accepted packet length average = 1
Total in-flight flits = 18 (18 measured)
latency change    = 0.0214389
throughput change = 0.000834028
Class 0:
Packet latency average = 20.1101
	minimum = 7
	maximum = 46
Network latency average = 20.1101
	minimum = 7
	maximum = 46
Slowest packet = 4884
Flit latency average = 20.1913
	minimum = 7
	maximum = 46
Slowest flit = 4884
Fragmentation average = 0
	minimum = 0
	maximum = 0
Injected packet rate average = 0.0494687
	minimum = 0.0395 (at node 15)
	maximum = 0.058 (at node 2)
Accepted packet rate average = 0.0498125
	minimum = 0.042 (at node 10)
	maximum = 0.056 (at node 13)
Injected flit rate average = 0.0494687
	minimum = 0.0395 (at node 15)
	maximum = 0.058 (at node 2)
Accepted flit rate average= 0.0498125
	minimum = 0.042 (at node 10)
	maximum = 0.056 (at node 13)
Injected packet length average = 1
Accepted packet length average = 1
Total in-flight flits = 11 (11 measured)
latency change    = 0.00534316
throughput change = 0.00292765
Draining all recorded packets ...
Draining remaining packets ...
Time taken is 3565 cycles
Class 0:
Packet latency average = 19.9471
	minimum = 7
	maximum = 46
Network latency average = 19.9471
	minimum = 7
	maximum = 46
Slowest packet = 6035
Flit latency average = 19.9471
	minimum = 7
	maximum = 46
Slowest flit = 6035
Fragmentation average = 0
	minimum = 0
	maximum = 0
Injected packet rate average = 0.04975
	minimum = 0.03 (at node 5)
	maximum = 0.074 (at node 3)
Accepted packet rate average = 0.04725
	minimum = 0.036 (at node 14)
	maximum = 0.06 (at node 9)
Injected flit rate average = 0.04975
	minimum = 0.03 (at node 5)
	maximum = 0.074 (at node 3)
Accepted flit rate average= 0.04725
	minimum = 0.036 (at node 14)
	maximum = 0.06 (at node 9)
Injected packet length average = 1
Accepted packet length average = 1
Total in-flight flits = 20 (0 measured)
latency change    = 1
throughput change = 1
Class 0:
Packet latency average = 20.4405
	minimum = 7
	maximum = 46
Network latency average = 20.4392
	minimum = 7
	maximum = 46
Slowest packet = 6035
Flit latency average = 20.4392
	minimum = 7
	maximum = 46
Slowest flit = 6035
Fragmentation average = 0
	minimum = 0
	maximum = 0
Injected packet rate average = 0.04875
	minimum = 0.042 (at node 12)
	maximum = 0.061 (at node 4)
Accepted packet rate average = 0.0478125
	minimum = 0.041 (at node 2)
	maximum = 0.059 (at node 15)
Injected flit rate average = 0.04875
	minimum = 0.042 (at node 12)
	maximum = 0.061 (at node 4)
Accepted flit rate average= 0.0478125
	minimum = 0.041 (at node 2)
	maximum = 0.059 (at node 15)
Injected packet length average = 1
Accepted packet length average = 1
Total in-flight flits = 15 (0 measured)
latency change    = 0.0241399
throughput change = 0.0117647
Class 0:
Packet latency average = 20.793
	minimum = 7
	maximum = 42
Network latency average = 20.793
	minimum = 7
	maximum = 42
Slowest packet = 6695
Flit latency average = 20.793
	minimum = 7
	maximum = 42
Slowest flit = 6695
Fragmentation average = 0
	minimum = 0
	maximum = 0
Injected packet rate average = 0.05
	minimum = 0.034 (at node 4)
	maximum = 0.07 (at node 6)
Accepted packet rate average = 0.050125
	minimum = 0.032 (at node 12)
	maximum = 0.078 (at node 10)
Injected flit rate average = 0.05
	minimum = 0.034 (at node 4)
	maximum = 0.07 (at node 6)
Accepted flit rate average= 0.050125
	minimum = 0.032 (at node 12)
	maximum = 0.078 (at node 10)
Injected packet length average = 1
Accepted packet length average = 1
Total in-flight flits = 14 (0 measured)
latency change    = 0.0169525
throughput change = 0.0461347
Warmed up ...Time used is 1500 cycles
Class 0:
Packet latency average = 20.163
	minimum = 7
	maximum = 39
Network latency average = 20.163
	minimum = 7
	maximum = 39
Slowest packet = 6979
Flit latency average = 20.2277
	minimum = 7
	maximum = 39
Slowest flit = 6979
Fragmentation average = 0
	minimum = 0
	maximum = 0
Injected packet rate average = 0.0485
	minimum = 0.042 (at node 5)
	maximum = 0.06 (at node 8)
Accepted packet rate average = 0.04775
	minimum = 0.032 (at node 3)
	maximum = 0.072 (at node 14)
Injected flit rate average = 0.0485
	minimum = 0.042 (at node 5)
	maximum = 0.06 (at node 8)
Accepted flit rate average= 0.04775
	minimum = 0.032 (at node 3)
	maximum = 0.072 (at node 14)
Injected packet length average = 1
Accepted packet length average = 1
Total in-flight flits = 20 (20 measured)
latency change    = 0.031244
throughput change = 0.0497382
Class 0:
Packet latency average = 20.2013
	minimum = 7
	maximum = 48
Network latency average = 20.2013
	minimum = 7
	maximum = 48
Slowest packet = 7608
Flit latency average = 20.2326
	minimum = 7
	maximum = 48
Slowest flit = 7608
Fragmentation average = 0
	minimum = 0
	maximum = 0
Injected packet rate average = 0.0489375
	minimum = 0.039 (at node 3)
	maximum = 0.064 (at node 14)
Accepted packet rate average = 0.048375
	minimum = 0.037 (at node 13)
	maximum = 0.06 (at node 5)
Injected flit rate average = 0.0489375
	minimum = 0.039 (at node 3)
	maximum = 0.064 (at node 14)
Accepted flit rate average= 0.048375
	minimum = 0.037 (at node 13)
	maximum = 0.06 (at node 5)
Injected packet length average = 1
Accepted packet length average = 1
Total in-flight flits = 23 (23 measured)
latency change    = 0.00189455
throughput change = 0.0129199
Class 0:
Packet latency average = 20.0009
	minimum = 7
	maximum = 48
Network latency average = 20.0009
	minimum = 7
	maximum = 48
Slowest packet = 7608
Flit latency average = 20.0237
	minimum = 7
	maximum = 48
Slowest flit = 7608
Fragmentation average = 0
	minimum = 0
	maximum = 0
Injected packet rate average = 0.0493333
	minimum = 0.0373333 (at node 3)
	maximum = 0.0633333 (at node 14)
Accepted packet rate average = 0.04925
	minimum = 0.0386667 (at node 15)
	maximum = 0.0586667 (at node 5)
Injected flit rate average = 0.0493333
	minimum = 0.0373333 (at node 3)
	maximum = 0.0633333 (at node 14)
Accepted flit rate average= 0.04925
	minimum = 0.0386667 (at node 15)
	maximum = 0.0586667 (at node 5)
Injected packet length average = 1
Accepted packet length average = 1
Total in-flight flits = 16 (16 measured)
latency change    = 0.0100226
throughput change = 0.0177665
Draining all recorded packets ...
Draining remaining packets ...
Time taken is 3046 cycles
Class 0:
Packet latency average = 19.9243
	minimum = 7
	maximum = 55
Network latency average = 19.9243
	minimum = 7
	maximum = 55
Slowest packet = 8223
Flit latency average = 19.9243
	minimum = 7
	maximum = 55
Slowest flit = 8223
Fragmentation average = 0
	minimum = 0
	maximum = 0
Injected packet rate average = 0.048875
	minimum = 0.04 (at node 1)
	maximum = 0.068 (at node 9)
Accepted packet rate average = 0.047875
	minimum = 0.036 (at node 8)
	maximum = 0.066 (at node 10)
Injected flit rate average = 0.048875
	minimum = 0.04 (at node 1)
	maximum = 0.068 (at node 9)
Accepted flit rate average= 0.047875
	minimum = 0.036 (at node 8)
	maximum = 0.066 (at node 10)
Injected packet length average = 1
Accepted packet length average = 1
Total in-flight flits = 8 (0 measured)
latency change    = 1
throughput change = 1
Class 0:
Packet latency average = 19.9624
	minimum = 7
	maximum = 55
Network latency average = 19.9624
	minimum = 7
	maximum = 55
Slowest packet = 8223
Flit latency average = 19.9624
	minimum = 7
	maximum = 55
Slowest flit = 8223
Fragmentation average = 0
	minimum = 0
	maximum = 0
Injected packet rate average = 0.04925
	minimum = 0.039 (at node 0)
	maximum = 0.06 (at node 9)
Accepted packet rate average = 0.0481875
	minimum = 0.036 (at node 1)
	maximum = 0.059 (at node 15)
Injected flit rate average = 0.04925
	minimum = 0.039 (at node 0)
	maximum = 0.06 (at node 9)
Accepted flit rate average= 0.0481875
	minimum = 0.036 (at node 1)
	maximum = 0.059 (at node 15)
Injected packet length average = 1
Accepted packet length average = 1
Total in-flight flits = 17 (0 measured)
latency change    = 0.00190882
throughput change = 0.00648508
Class 0:
Packet latency average = 20.2166
	minimum = 7
	maximum = 42
Network latency average = 20.2166
	minimum = 7
	maximum = 42
Slowest packet = 8910
Flit latency average = 20.2166
	minimum = 7
	maximum = 42
Slowest flit = 8910
Fragmentation average = 0
	minimum = 0
	maximum = 0
Injected packet rate average = 0.049625
	minimum = 0.036 (at node 10)
	maximum = 0.072 (at node 9)
Accepted packet rate average = 0.049625
	minimum = 0.028 (at node 15)
	maximum = 0.068 (at node 5)
Injected flit rate average = 0.049625
	minimum = 0.036 (at node 10)
	maximum = 0.072 (at node 9)
Accepted flit rate average= 0.049625
	minimum = 0.028 (at node 15)
	maximum = 0.068 (at node 5)
Injected packet length average = 1
Accepted packet length average = 1
Total in-flight flits = 17 (0 measured)
latency change    = 0.0125757
throughput change = 0.0289673
Warmed up ...Time used is 1500 cycles
Class 0:
Packet latency average = 20.5235
	minimum = 7
	maximum = 49
Network latency average = 20.5235
	minimum = 7
	maximum = 49
Slowest packet = 9689
Flit latency average = 20.6825
	minimum = 7
	maximum = 49
Slowest flit = 9689
Fragmentation average = 0
	minimum = 0
	maximum = 0
Injected packet rate average = 0.0475
	minimum = 0.024 (at node 11)
	maximum = 0.074 (at node 4)
Accepted packet rate average = 0.04725
	minimum = 0.032 (at node 4)
	maximum = 0.068 (at node 8)
Injected flit rate average = 0.0475
	minimum = 0.024 (at node 11)
	maximum = 0.074 (at node 4)
Accepted flit rate average= 0.04725
	minimum = 0.032 (at node 4)
	maximum = 0.068 (at node 8)
Injected packet length average = 1
Accepted packet length average = 1
Total in-flight flits = 19 (19 measured)
latency change    = 0.0149546
throughput change = 0.0502646
Class 0:
Packet latency average = 20.2717
	minimum = 7
	maximum = 51
Network latency average = 20.2717
	minimum = 7
	maximum = 51
Slowest packet = 10043
Flit latency average = 20.3572
	minimum = 7
	maximum = 51
Slowest flit = 10043
Fragmentation average = 0
	minimum = 0
	maximum = 0
Injected packet rate average = 0.04675
	minimum = 0.034 (at node 11)
	maximum = 0.068 (at node 4)
Accepted packet rate average = 0.0470625
	minimum = 0.03 (at node 4)
	maximum = 0.065 (at node 8)
Injected flit rate average = 0.04675
	minimum = 0.034 (at node 11)
	maximum = 0.068 (at node 4)
Accepted flit rate average= 0.0470625
	minimum = 0.03 (at node 4)
	maximum = 0.065 (at node 8)
Injected packet length average = 1
Accepted packet length average = 1
Total in-flight flits = 12 (12 measured)
latency change    = 0.0124216
throughput change = 0.00398406
Class 0:
Packet latency average = 20.3636
	minimum = 7
	maximum = 53
Network latency average = 20.3636
	minimum = 7
	maximum = 53
Slowest packet = 10296
Flit latency average = 20.418
	minimum = 7
	maximum = 53
Slowest flit = 10296
Fragmentation average = 0
	minimum = 0
	maximum = 0
Injected packet rate average = 0.0480833
	minimum = 0.0353333 (at node 11)
	maximum = 0.06 (at node 4)
Accepted packet rate average = 0.0480417
	minimum = 0.036 (at node 4)
	maximum = 0.06 (at node 8)
Injected flit rate average = 0.0480833
	minimum = 0.0353333 (at node 11)
	maximum = 0.06 (at node 4)
Accepted flit rate average= 0.0480417
	minimum = 0.036 (at node 4)
	maximum = 0.06 (at node 8)
Injected packet length average = 1
Accepted packet length average = 1
Total in-flight flits = 18 (18 measured)
latency change    = 0.0045089
throughput change = 0.0203816
Class 0:
Packet latency average = 20.1847
	minimum = 7
	maximum = 53
Network latency average = 20.1847
	minimum = 7
	maximum = 53
Slowest packet = 10296
Flit latency average = 20.2277
	minimum = 7
	maximum = 53
Slowest flit = 10296
Fragmentation average = 0
	minimum = 0
	maximum = 0
Injected packet rate average = 0.0479687
	minimum = 0.038 (at node 11)
	maximum = 0.056 (at node 4)
Accepted packet rate average = 0.0479062
	minimum = 0.0385 (at node 15)
	maximum = 0.056 (at node 8)
Injected flit rate average = 0.0479687
	minimum = 0.038 (at node 11)
	maximum = 0.056 (at node 4)
Accepted flit rate average= 0.0479062
	minimum = 0.0385 (at node 15)
	maximum = 0.056 (at node 8)
Injected packet length average = 1
Accepted packet length average = 1
Total in-flight flits = 19 (19 measured)
latency change    = 0.00886116
throughput change = 0.0028267
Draining all recorded packets ...
Draining remaining packets ...
Time taken is 3561 cycles
Class 0:
Packet latency average = 19.759
	minimum = 7
	maximum = 43
Network latency average = 19.759
	minimum = 7
	maximum = 43
Slowest packet = 11122
Flit latency average = 19.759
	minimum = 7
	maximum = 43
Slowest flit = 11122
Fragmentation average = 0
	minimum = 0
	maximum = 0
Injected packet rate average = 0.046375
	minimum = 0.036 (at node 2)
	maximum = 0.058 (at node 12)
Accepted packet rate average = 0.045125
	minimum = 0.026 (at node 7)
	maximum = 0.058 (at node 1)
Injected flit rate average = 0.046375
	minimum = 0.036 (at node 2)
	maximum = 0.058 (at node 12)
Accepted flit rate average= 0.045125
	minimum = 0.026 (at node 7)
	maximum = 0.058 (at node 1)
Injected packet length average = 1
Accepted packet length average = 1
Total in-flight flits = 10 (0 measured)
latency change    = 1
throughput change = 1
Class 0:
Packet latency average = 20.0441
	minimum = 7
	maximum = 45
Network latency average = 20.0441
	minimum = 7
	maximum = 45
Slowest packet = 11593
Flit latency average = 20.0441
	minimum = 7
	maximum = 45
Slowest flit = 11593
Fragmentation average = 0
	minimum = 0
	maximum = 0
Injected packet rate average = 0.0479375
	minimum = 0.042 (at node 1)
	maximum = 0.058 (at node 12)
Accepted packet rate average = 0.0468125
	minimum = 0.036 (at node 5)
	maximum = 0.057 (at node 15)
Injected flit rate average = 0.0479375
	minimum = 0.042 (at node 1)
	maximum = 0.058 (at node 12)
Accepted flit rate average= 0.0468125
	minimum = 0.036 (at node 5)
	maximum = 0.057 (at node 15)
Injected packet length average = 1
Accepted packet length average = 1
Total in-flight flits = 18 (0 measured)
latency change    = 0.0142215
throughput change = 0.0360481
Class 0:
Packet latency average = 20.5278
	minimum = 7
	maximum = 50
Network latency average = 20.5278
	minimum = 7
	maximum = 50
Slowest packet = 11842
Flit latency average = 20.5278
	minimum = 7
	maximum = 50
Slowest flit = 11842
Fragmentation average = 0
	minimum = 0
	maximum = 0
Injected packet rate average = 0.053875
	minimum = 0.04 (at node 3)
	maximum = 0.068 (at node 4)
Accepted packet rate average = 0.054
	minimum = 0.038 (at node 0)
	maximum = 0.072 (at node 6)
Injected flit rate average = 0.053875
	minimum = 0.04 (at node 3)
	maximum = 0.068 (at node 4)
Accepted flit rate average= 0.054
	minimum = 0.038 (at node 0)
	maximum = 0.072 (at node 6)
Injected packet length average = 1
Accepted packet length average = 1
Total in-flight flits = 17 (0 measured)
latency change    = 0.0235641
throughput change = 0.133102
Warmed up ...Time used is 1500 cycles
Class 0:
Packet latency average = 20.0026
	minimum = 7
	maximum = 51
Network latency average = 20.0026
	minimum = 7
	maximum = 51
Slowest packet = 12192
Flit latency average = 20.1725
	minimum = 7
	maximum = 51
Slowest flit = 12192
Fragmentation average = 0
	minimum = 0
	maximum = 0
Injected packet rate average = 0.049375
	minimum = 0.036 (at node 9)
	maximum = 0.064 (at node 2)
Accepted packet rate average = 0.05
	minimum = 0.032 (at node 0)
	maximum = 0.07 (at node 10)
Injected flit rate average = 0.049375
	minimum = 0.036 (at node 9)
	maximum = 0.064 (at node 2)
Accepted flit rate average= 0.05
	minimum = 0.032 (at node 0)
	maximum = 0.07 (at node 10)
Injected packet length average = 1
Accepted packet length average = 1
Total in-flight flits = 12 (12 measured)
latency change    = 0.0262549
throughput change = 0.08
Class 0:
Packet latency average = 19.708
	minimum = 7
	maximum = 51
Network latency average = 19.708
	minimum = 7
	maximum = 51
Slowest packet = 12192
Flit latency average = 19.7983
	minimum = 7
	maximum = 51
Slowest flit = 12192
Fragmentation average = 0
	minimum = 0
	maximum = 0
Injected packet rate average = 0.0504375
	minimum = 0.041 (at node 9)
	maximum = 0.067 (at node 2)
Accepted packet rate average = 0.0505
	minimum = 0.039 (at node 2)
	maximum = 0.066 (at node 6)
Injected flit rate average = 0.0504375
	minimum = 0.041 (at node 9)
	maximum = 0.067 (at node 2)
Accepted flit rate average= 0.0505
	minimum = 0.039 (at node 2)
	maximum = 0.066 (at node 6)
Injected packet length average = 1
Accepted packet length average = 1
Total in-flight flits = 16 (16 measured)
latency change    = 0.0149506
throughput change = 0.00990099
Class 0:
Packet latency average = 19.8737
	minimum = 7
	maximum = 51
Network latency average = 19.8737
	minimum = 7
	maximum = 51
Slowest packet = 12192
Flit latency average = 19.9331
	minimum = 7
	maximum = 51
Slowest flit = 12192
Fragmentation average = 0
	minimum = 0
	maximum = 0
Injected packet rate average = 0.0492083
	minimum = 0.0433333 (at node 9)
	maximum = 0.062 (at node 15)
Accepted packet rate average = 0.0492083
	minimum = 0.0373333 (at node 0)
	maximum = 0.0633333 (at node 4)
Injected flit rate average = 0.0492083
	minimum = 0.0433333 (at node 9)
	maximum = 0.062 (at node 15)
Accepted flit rate average= 0.0492083
	minimum = 0.0373333 (at node 0)
	maximum = 0.0633333 (at node 4)
Injected packet length average = 1
Accepted packet length average = 1
Total in-flight flits = 17 (17 measured)
latency change    = 0.00834
throughput change = 0.0262489
Class 0:
Packet latency average = 20.0908
	minimum = 7
	maximum = 51
Network latency average = 20.0908
	minimum = 7
	maximum = 51
Slowest packet = 12192
Flit latency average = 20.1328
	minimum = 7
	maximum = 51
Slowest flit = 12192
Fragmentation average = 0
	minimum = 0
	maximum = 0
Injected packet rate average = 0.0491562
	minimum = 0.044 (at node 8)
	maximum = 0.06 (at node 15)
Accepted packet rate average = 0.0494062
	minimum = 0.04 (at node 2)
	maximum = 0.0605 (at node 10)
Injected flit rate average = 0.0491562
	minimum = 0.044 (at node 8)
	maximum = 0.06 (at node 15)
Accepted flit rate average= 0.0494062
	minimum = 0.04 (at node 2)
	maximum = 0.0605 (at node 10)
Injected packet length average = 1
Accepted packet length average = 1
Total in-flight flits = 9 (9 measured)
latency change    = 0.010805
throughput change = 0.0040059
Draining all recorded packets ...
Draining remaining packets ...
Time taken is 3554 cycles
Class 0:
Packet latency average = 20.0466
	minimum = 7
	maximum = 49
Network latency average = 20.0466
	minimum = 7
	maximum = 49
Slowest packet = 13902
Flit latency average = 20.0466
	minimum = 7
	maximum = 49
Slowest flit = 13902
Fragmentation average = 0
	minimum = 0
	maximum = 0
Injected packet rate average = 0.047
	minimum = 0.03 (at node 8)
	maximum = 0.064 (at node 0)
Accepted packet rate average = 0.045625
	minimum = 0.036 (at node 1)
	maximum = 0.064 (at node 12)
Injected flit rate average = 0.047
	minimum = 0.03 (at node 8)
	maximum = 0.064 (at node 0)
Accepted flit rate average= 0.045625
	minimum = 0.036 (at node 1)
	maximum = 0.064 (at node 12)
Injected packet length average = 1
Accepted packet length average = 1
Total in-flight flits = 11 (0 measured)
latency change    = 1
throughput change = 1
Class 0:
Packet latency average = 20.2755
	minimum = 7
	maximum = 50
Network latency average = 20.2755
	minimum = 7
	maximum = 50
Slowest packet = 14292
Flit latency average = 20.2755
	minimum = 7
	maximum = 50
Slowest flit = 14292
Fragmentation average = 0
	minimum = 0
	maximum = 0
Injected packet rate average = 0.04925
	minimum = 0.04 (at node 8)
	maximum = 0.059 (at node 14)
Accepted packet rate average = 0.0483125
	minimum = 0.034 (at node 13)
	maximum = 0.064 (at node 12)
Injected flit rate average = 0.04925
	minimum = 0.04 (at node 8)
	maximum = 0.059 (at node 14)
Accepted flit rate average= 0.0483125
	minimum = 0.034 (at node 13)
	maximum = 0.064 (at node 12)
Injected packet length average = 1
Accepted packet length average = 1
Total in-flight flits = 15 (0 measured)
latency change    = 0.0112931
throughput change = 0.0556274
Class 0:
Packet latency average = 20.1064
	minimum = 7
	maximum = 44
Network latency average = 20.1064
	minimum = 7
	maximum = 44
Slowest packet = 14705
Flit latency average = 20.1064
	minimum = 7
	maximum = 44
Slowest flit = 14705
Fragmentation average = 0
	minimum = 0
	maximum = 0
Injected packet rate average = 0.05025
	minimum = 0.038 (at node 0)
	maximum = 0.062 (at node 14)
Accepted packet rate average = 0.0505
	minimum = 0.038 (at node 13)
	maximum = 0.07 (at node 6)
Injected flit rate average = 0.05025
	minimum = 0.038 (at node 0)
	maximum = 0.062 (at node 14)
Accepted flit rate average= 0.0505
	minimum = 0.038 (at node 13)
	maximum = 0.07 (at node 6)
Injected packet length average = 1
Accepted packet length average = 1
Total in-flight flits = 13 (0 measured)
latency change    = 0.00841095
throughput change = 0.0433168
Warmed up ...Time used is 1500 cycles
Class 0:
Packet latency average = 19.757
	minimum = 7
	maximum = 40
Network latency average = 19.757
	minimum = 7
	maximum = 40
Slowest packet = 14953
Flit latency average = 19.8701
	minimum = 7
	maximum = 40
Slowest flit = 14953
Fragmentation average = 0
	minimum = 0
	maximum = 0
Injected packet rate average = 0.051625
	minimum = 0.036 (at node 8)
	maximum = 0.068 (at node 7)
Accepted packet rate average = 0.051
	minimum = 0.032 (at node 11)
	maximum = 0.076 (at node 4)
Injected flit rate average = 0.051625
	minimum = 0.036 (at node 8)
	maximum = 0.068 (at node 7)
Accepted flit rate average= 0.051
	minimum = 0.032 (at node 11)
	maximum = 0.076 (at node 4)
Injected packet length average = 1
Accepted packet length average = 1
Total in-flight flits = 18 (18 measured)
latency change    = 0.0176886
throughput change = 0.00980392
Class 0:
Packet latency average = 19.9001
	minimum = 7
	maximum = 46
Network latency average = 19.9001
	minimum = 7
	maximum = 46
Slowest packet = 15486
Flit latency average = 19.9559
	minimum = 7
	maximum = 46
Slowest flit = 15486
Fragmentation average = 0
	minimum = 0
	maximum = 0
Injected packet rate average = 0.0498125
	minimum = 0.035 (at node 8)
	maximum = 0.07 (at node 7)
Accepted packet rate average = 0.049625
	minimum = 0.03 (at node 2)
	maximum = 0.067 (at node 4)
Injected flit rate average = 0.0498125
	minimum = 0.035 (at node 8)
	maximum = 0.07 (at node 7)
Accepted flit rate average= 0.049625
	minimum = 0.03 (at node 2)
	maximum = 0.067 (at node 4)
Injected packet length average = 1
Accepted packet length average = 1
Total in-flight flits = 16 (16 measured)
latency change    = 0.00719423
throughput change = 0.0277078
Class 0:
Packet latency average = 20.2513
	minimum = 7
	maximum = 57
Network latency average = 20.2513
	minimum = 7
	maximum = 57
Slowest packet = 15808
Flit latency average = 20.2846
	minimum = 7
	maximum = 57
Slowest flit = 15808
Fragmentation average = 0
	minimum = 0
	maximum = 0
Injected packet rate average = 0.0500833
	minimum = 0.0353333 (at node 8)
	maximum = 0.0633333 (at node 4)
Accepted packet rate average = 0.049625
	minimum = 0.0346667 (at node 2)
	maximum = 0.0613333 (at node 4)
Injected flit rate average = 0.0500833
	minimum = 0.0353333 (at node 8)
	maximum = 0.0633333 (at node 4)
Accepted flit rate average= 0.049625
	minimum = 0.0346667 (at node 2)
	maximum = 0.0613333 (at node 4)
Injected packet length average = 1
Accepted packet length average = 1
Total in-flight flits = 24 (24 measured)
latency change    = 0.0173394
throughput change = 0
Draining all recorded packets ...
Draining remaining packets ...
Time taken is 3060 cycles
Class 0:
Packet latency average = 19.4778
	minimum = 7
	maximum = 44
Network latency average = 19.4778
	minimum = 7
	maximum = 44
Slowest packet = 16485
Flit latency average = 19.4778
	minimum = 7
	maximum = 44
Slowest flit = 16485
Fragmentation average = 0
	minimum = 0
	maximum = 0
Injected packet rate average = 0.052875
	minimum = 0.04 (at node 12)
	maximum = 0.068 (at node 10)
Accepted packet rate average = 0.05075
	minimum = 0.026 (at node 0)
	maximum = 0.074 (at node 2)
Injected flit rate average = 0.052875
	minimum = 0.04 (at node 12)
	maximum = 0.068 (at node 10)
Accepted flit rate average= 0.05075
	minimum = 0.026 (at node 0)
	maximum = 0.074 (at node 2)
Injected packet length average = 1
Accepted packet length average = 1
Total in-flight flits = 17 (0 measured)
latency change    = 1
throughput change = 1
Class 0:
Packet latency average = 19.705
	minimum = 7
	maximum = 44
Network latency average = 19.705
	minimum = 7
	maximum = 44
Slowest packet = 16485
Flit latency average = 19.705
	minimum = 7
	maximum = 44
Slowest flit = 16485
Fragmentation average = 0
	minimum = 0
	maximum = 0
Injected packet rate average = 0.0495625
	minimum = 0.037 (at node 3)
	maximum = 0.062 (at node 2)
Accepted packet rate average = 0.0483125
	minimum = 0.035 (at node 0)
	maximum = 0.059 (at node 2)
Injected flit rate average = 0.0495625
	minimum = 0.037 (at node 3)
	maximum = 0.062 (at node 2)
Accepted flit rate average= 0.0483125
	minimum = 0.035 (at node 0)
	maximum = 0.059 (at node 2)
Injected packet length average = 1
Accepted packet length average = 1
Total in-flight flits = 20 (0 measured)
latency change    = 0.0115307
throughput change = 0.0504528
Class 0:
Packet latency average = 20.2967
	minimum = 7
	maximum = 44
Network latency average = 20.2967
	minimum = 7
	maximum = 44
Slowest packet = 16905
Flit latency average = 20.2967
	minimum = 7
	maximum = 44
Slowest flit = 16905
Fragmentation average = 0
	minimum = 0
	maximum = 0
Injected packet rate average = 0.052625
	minimum = 0.018 (at node 6)
	maximum = 0.07 (at node 12)
Accepted packet rate average = 0.0535
	minimum = 0.038 (at node 2)
	maximum = 0.078 (at node 3)
Injected flit rate average = 0.052625
	minimum = 0.018 (at node 6)
	maximum = 0.07 (at node 12)
Accepted flit rate average= 0.0535
	minimum = 0.038 (at node 2)
	maximum = 0.078 (at node 3)
Injected packet length average = 1
Accepted packet length average = 1
Total in-flight flits = 13 (0 measured)
latency change    = 0.0291517
throughput change = 0.0969626
Warmed up ...Time used is 1500 cycles
Class 0:
Packet latency average = 20.3119
	minimum = 7
	maximum = 45
Network latency average = 20.3119
	minimum = 7
	maximum = 45
Slowest packet = 17503
Flit latency average = 20.5312
	minimum = 7
	maximum = 45
Slowest flit = 17503
Fragmentation average = 0
	minimum = 0
	maximum = 0
Injected packet rate average = 0.051
	minimum = 0.028 (at node 5)
	maximum = 0.064 (at node 9)
Accepted packet rate average = 0.050125
	minimum = 0.032 (at node 13)
	maximum = 0.07 (at node 7)
Injected flit rate average = 0.051
	minimum = 0.028 (at node 5)
	maximum = 0.064 (at node 9)
Accepted flit rate average= 0.050125
	minimum = 0.032 (at node 13)
	maximum = 0.07 (at node 7)
Injected packet length average = 1
Accepted packet length average = 1
Total in-flight flits = 20 (20 measured)
latency change    = 0.000744723
throughput change = 0.0673317
Class 0:
Packet latency average = 20.1407
	minimum = 7
	maximum = 51
Network latency average = 20.1407
	minimum = 7
	maximum = 51
Slowest packet = 18100
Flit latency average = 20.2512
	minimum = 7
	maximum = 51
Slowest flit = 18100
Fragmentation average = 0
	minimum = 0
	maximum = 0
Injected packet rate average = 0.0514375
	minimum = 0.041 (at node 5)
	maximum = 0.064 (at node 9)
Accepted packet rate average = 0.051
	minimum = 0.041 (at node 5)
	maximum = 0.068 (at node 7)
Injected flit rate average = 0.0514375
	minimum = 0.041 (at node 5)
	maximum = 0.064 (at node 9)
Accepted flit rate average= 0.051
	minimum = 0.041 (at node 5)
	maximum = 0.068 (at node 7)
Injected packet length average = 1
Accepted packet length average = 1
Total in-flight flits = 20 (20 measured)
latency change    = 0.00849688
throughput change = 0.0171569
Class 0:
Packet latency average = 20.4814
	minimum = 7
	maximum = 54
Network latency average = 20.4814
	minimum = 7
	maximum = 54
Slowest packet = 18126
Flit latency average = 20.5532
	minimum = 7
	maximum = 54
Slowest flit = 18126
Fragmentation average = 0
	minimum = 0
	maximum = 0
Injected packet rate average = 0.0497083
	minimum = 0.0426667 (at node 11)
	maximum = 0.0606667 (at node 9)
Accepted packet rate average = 0.0497083
	minimum = 0.0373333 (at node 5)
	maximum = 0.0633333 (at node 7)
Injected flit rate average = 0.0497083
	minimum = 0.0426667 (at node 11)
	maximum = 0.0606667 (at node 9)
Accepted flit rate average= 0.0497083
	minimum = 0.0373333 (at node 5)
	maximum = 0.0633333 (at node 7)
Injected packet length average = 1
Accepted packet length average = 1
Total in-flight flits = 13 (13 measured)
latency change    = 0.0166314
throughput change = 0.0259849
Class 0:
Packet latency average = 20.4442
	minimum = 7
	maximum = 54
Network latency average = 20.4442
	minimum = 7
	maximum = 54
Slowest packet = 18126
Flit latency average = 20.4978
	minimum = 7
	maximum = 54
Slowest flit = 18126
Fragmentation average = 0
	minimum = 0
	maximum = 0
Injected packet rate average = 0.050375
	minimum = 0.045 (at node 14)
	maximum = 0.0585 (at node 2)
Accepted packet rate average = 0.0502812
	minimum = 0.0405 (at node 15)
	maximum = 0.0625 (at node 3)
Injected flit rate average = 0.050375
	minimum = 0.045 (at node 14)
	maximum = 0.0585 (at node 2)
Accepted flit rate average= 0.0502812
	minimum = 0.0405 (at node 15)
	maximum = 0.0625 (at node 3)
Injected packet length average = 1
Accepted packet length average = 1
Total in-flight flits = 16 (16 measured)
latency change    = 0.00181569
throughput change = 0.0113942
Draining all recorded packets ...
Draining remaining packets ...
Time taken is 3560 cycles
Class 0:
Packet latency average = 18.926
	minimum = 7
	maximum = 45
Network latency average = 18.926
	minimum = 7
	maximum = 45
Slowest packet = 19089
Flit latency average = 18.926
	minimum = 7
	maximum = 45
Slowest flit = 19089
Fragmentation average = 0
	minimum = 0
	maximum = 0
Injected packet rate average = 0.051375
	minimum = 0.028 (at node 0)
	maximum = 0.064 (at node 1)
Accepted packet rate average = 0.049
	minimum = 0.03 (at node 3)
	maximum = 0.064 (at node 6)
Injected flit rate average = 0.051375
	minimum = 0.028 (at node 0)
	maximum = 0.064 (at node 1)
Accepted flit rate average= 0.049
	minimum = 0.03 (at node 3)
	maximum = 0.064 (at node 6)
Injected packet length average = 1
Accepted packet length average = 1
Total in-flight flits = 19 (0 measured)
latency change    = 1
throughput change = 1
Class 0:
Packet latency average = 19.5234
	minimum = 7
	maximum = 45
Network latency average = 19.5234
	minimum = 7
	maximum = 45
Slowest packet = 19089
Flit latency average = 19.5234
	minimum = 7
	maximum = 45
Slowest flit = 19089
Fragmentation average = 0
	minimum = 0
	maximum = 0
Injected packet rate average = 0.0533125
	minimum = 0.042 (at node 13)
	maximum = 0.071 (at node 5)
Accepted packet rate average = 0.0520625
	minimum = 0.036 (at node 3)
	maximum = 0.066 (at node 5)
Injected flit rate average = 0.0533125
	minimum = 0.042 (at node 13)
	maximum = 0.071 (at node 5)
Accepted flit rate average= 0.0520625
	minimum = 0.036 (at node 3)
	maximum = 0.066 (at node 5)
Injected packet length average = 1
Accepted packet length average = 1
Total in-flight flits = 20 (0 measured)
latency change    = 0.0305986
throughput change = 0.0588235
Class 0:
Packet latency average = 20.7232
	minimum = 7
	maximum = 54
Network latency average = 20.7232
	minimum = 7
	maximum = 54
Slowest packet = 19859
Flit latency average = 20.7232
	minimum = 7
	maximum = 54
Slowest flit = 19859
Fragmentation average = 0
	minimum = 0
	maximum = 0
Injected packet rate average = 0.046875
	minimum = 0.024 (at node 6)
	maximum = 0.062 (at node 11)
Accepted packet rate average = 0.047875
	minimum = 0.04 (at node 10)
	maximum = 0.058 (at node 7)
Injected flit rate average = 0.046875
	minimum = 0.024 (at node 6)
	maximum = 0.062 (at node 11)
Accepted flit rate average= 0.047875
	minimum = 0.04 (at node 10)
	maximum = 0.058 (at node 7)
Injected packet length average = 1
Accepted packet length average = 1
Total in-flight flits = 12 (0 measured)
latency change    = 0.0578977
throughput change = 0.0874674
Warmed up ...Time used is 1500 cycles
Class 0:
Packet latency average = 19.587
	minimum = 7
	maximum = 44
Network latency average = 19.587
	minimum = 7
	maximum = 44
Slowest packet = 20253
Flit latency average = 19.8132
	minimum = 7
	maximum = 44
Slowest flit = 20253
Fragmentation average = 0
	minimum = 0
	maximum = 0
Injected packet rate average = 0.048
	minimum = 0.024 (at node 14)
	maximum = 0.088 (at node 10)
Accepted packet rate average = 0.0475
	minimum = 0.032 (at node 7)
	maximum = 0.066 (at node 5)
Injected flit rate average = 0.048
	minimum = 0.024 (at node 14)
	maximum = 0.088 (at node 10)
Accepted flit rate average= 0.0475
	minimum = 0.032 (at node 7)
	maximum = 0.066 (at node 5)
Injected packet length average = 1
Accepted packet length average = 1
Total in-flight flits = 16 (16 measured)
latency change    = 0.0580121
throughput change = 0.00789474
Class 0:
Packet latency average = 20.2577
	minimum = 7
	maximum = 56
Network latency average = 20.2577
	minimum = 7
	maximum = 56
Slowest packet = 20914
Flit latency average = 20.3566
	minimum = 7
	maximum = 56
Slowest flit = 20914
Fragmentation average = 0
	minimum = 0
	maximum = 0
Injected packet rate average = 0.0494375
	minimum = 0.037 (at node 2)
	maximum = 0.078 (at node 10)
Accepted packet rate average = 0.04925
	minimum = 0.034 (at node 7)
	maximum = 0.066 (at node 5)
Injected flit rate average = 0.0494375
	minimum = 0.037 (at node 2)
	maximum = 0.078 (at node 10)
Accepted flit rate average= 0.04925
	minimum = 0.034 (at node 7)
	maximum = 0.066 (at node 5)
Injected packet length average = 1
Accepted packet length average = 1
Total in-flight flits = 15 (15 measured)
latency change    = 0.0331121
throughput change = 0.035533
Class 0:
Packet latency average = 20.2714
	minimum = 7
	maximum = 59
Network latency average = 20.2714
	minimum = 7
	maximum = 59
Slowest packet = 21147
Flit latency average = 20.3347
	minimum = 7
	maximum = 59
Slowest flit = 21147
Fragmentation average = 0
	minimum = 0
	maximum = 0
Injected packet rate average = 0.0514583
	minimum = 0.04 (at node 15)
	maximum = 0.0653333 (at node 10)
Accepted packet rate average = 0.0511667
	minimum = 0.0426667 (at node 10)
	maximum = 0.0673333 (at node 4)
Injected flit rate average = 0.0514583
	minimum = 0.04 (at node 15)
	maximum = 0.0653333 (at node 10)
Accepted flit rate average= 0.0511667
	minimum = 0.0426667 (at node 10)
	maximum = 0.0673333 (at node 4)
Injected packet length average = 1
Accepted packet length average = 1
Total in-flight flits = 19 (19 measured)
latency change    = 0.000673344
throughput change = 0.0374593
Class 0:
Packet latency average = 20.4352
	minimum = 7
	maximum = 59
Network latency average = 20.4352
	minimum = 7
	maximum = 59
Slowest packet = 21147
Flit latency average = 20.4821
	minimum = 7
	maximum = 59
Slowest flit = 21147
Fragmentation average = 0
	minimum = 0
	maximum = 0
Injected packet rate average = 0.050625
	minimum = 0.0425 (at node 2)
	maximum = 0.059 (at node 10)
Accepted packet rate average = 0.0505
	minimum = 0.044 (at node 3)
	maximum = 0.063 (at node 4)
Injected flit rate average = 0.050625
	minimum = 0.0425 (at node 2)
	maximum = 0.059 (at node 10)
Accepted flit rate average= 0.0505
	minimum = 0.044 (at node 3)
	maximum = 0.063 (at node 4)
Injected packet length average = 1
Accepted packet length average = 1
Total in-flight flits = 16 (16 measured)
latency change    = 0.00801464
throughput change = 0.0132013
Draining all recorded packets ...
Draining remaining packets ...
Time taken is 3560 cycles
Class 0:
Packet latency average = 19.6314
	minimum = 7
	maximum = 43
Network latency average = 19.6314
	minimum = 7
	maximum = 43
Slowest packet = 21915
Flit latency average = 19.6314
	minimum = 7
	maximum = 43
Slowest flit = 21915
Fragmentation average = 0
	minimum = 0
	maximum = 0
Injected packet rate average = 0.05325
	minimum = 0.032 (at node 4)
	maximum = 0.07 (at node 11)
Accepted packet rate average = 0.050875
	minimum = 0.03 (at node 4)
	maximum = 0.062 (at node 7)
Injected flit rate average = 0.05325
	minimum = 0.032 (at node 4)
	maximum = 0.07 (at node 11)
Accepted flit rate average= 0.050875
	minimum = 0.03 (at node 4)
	maximum = 0.062 (at node 7)
Injected packet length average = 1
Accepted packet length average = 1
Total in-flight flits = 19 (0 measured)
latency change    = 1
throughput change = 1
Class 0:
Packet latency average = 19.7025
	minimum = 7
	maximum = 43
Network latency average = 19.7025
	minimum = 7
	maximum = 43
Slowest packet = 21915
Flit latency average = 19.7025
	minimum = 7
	maximum = 43
Slowest flit = 21915
Fragmentation average = 0
	minimum = 0
	maximum = 0
Injected packet rate average = 0.05075
	minimum = 0.042 (at node 4)
	maximum = 0.071 (at node 11)
Accepted packet rate average = 0.05
	minimum = 0.04 (at node 4)
	maximum = 0.059 (at node 7)
Injected flit rate average = 0.05075
	minimum = 0.042 (at node 4)
	maximum = 0.071 (at node 11)
Accepted flit rate average= 0.05
	minimum = 0.04 (at node 4)
	maximum = 0.059 (at node 7)
Injected packet length average = 1
Accepted packet length average = 1
Total in-flight flits = 12 (0 measured)
latency change    = 0.00360616
throughput change = 0.0175
Class 0:
Packet latency average = 19.9588
	minimum = 7
	maximum = 54
Network latency average = 19.9588
	minimum = 7
	maximum = 54
Slowest packet = 22946
Flit latency average = 19.9588
	minimum = 7
	maximum = 54
Slowest flit = 22946
Fragmentation average = 0
	minimum = 0
	maximum = 0
Injected packet rate average = 0.049375
	minimum = 0.034 (at node 13)
	maximum = 0.07 (at node 14)
Accepted packet rate average = 0.0485
	minimum = 0.034 (at node 15)
	maximum = 0.068 (at node 3)
Injected flit rate average = 0.049375
	minimum = 0.034 (at node 13)
	maximum = 0.07 (at node 14)
Accepted flit rate average= 0.0485
	minimum = 0.034 (at node 15)
	maximum = 0.068 (at node 3)
Injected packet length average = 1
Accepted packet length average = 1
Total in-flight flits = 19 (0 measured)
latency change    = 0.0128396
throughput change = 0.0309278
Warmed up ...Time used is 1500 cycles
Class 0:
Packet latency average = 20.1093
	minimum = 7
	maximum = 42
Network latency average = 20.1093
	minimum = 7
	maximum = 42
Slowest packet = 23098
Flit latency average = 20.2107
	minimum = 7
	maximum = 44
Slowest flit = 23032
Fragmentation average = 0
	minimum = 0
	maximum = 0
Injected packet rate average = 0.049875
	minimum = 0.036 (at node 10)
	maximum = 0.064 (at node 0)
Accepted packet rate average = 0.04925
	minimum = 0.032 (at node 5)
	maximum = 0.064 (at node 6)
Injected flit rate average = 0.049875
	minimum = 0.036 (at node 10)
	maximum = 0.064 (at node 0)
Accepted flit rate average= 0.04925
	minimum = 0.032 (at node 5)
	maximum = 0.064 (at node 6)
Injected packet length average = 1
Accepted packet length average = 1
Total in-flight flits = 24 (24 measured)
latency change    = 0.00748759
throughput change = 0.0152284
Class 0:
Packet latency average = 20.3377
	minimum = 7
	maximum = 42
Network latency average = 20.3377
	minimum = 7
	maximum = 42
Slowest packet = 23098
Flit latency average = 20.3796
	minimum = 7
	maximum = 44
Slowest flit = 23032
Fragmentation average = 0
	minimum = 0
	maximum = 0
Injected packet rate average = 0.05275
	minimum = 0.036 (at node 10)
	maximum = 0.064 (at node 0)
Accepted packet rate average = 0.0531875
	minimum = 0.043 (at node 11)
	maximum = 0.068 (at node 6)
Injected flit rate average = 0.05275
	minimum = 0.036 (at node 10)
	maximum = 0.064 (at node 0)
Accepted flit rate average= 0.0531875
	minimum = 0.043 (at node 11)
	maximum = 0.068 (at node 6)
Injected packet length average = 1
Accepted packet length average = 1
Total in-flight flits = 12 (12 measured)
latency change    = 0.0112307
throughput change = 0.0740306
Class 0:
Packet latency average = 20.3497
	minimum = 7
	maximum = 57
Network latency average = 20.3497
	minimum = 7
	maximum = 57
Slowest packet = 24042
Flit latency average = 20.3773
	minimum = 7
	maximum = 57
Slowest flit = 24042
Fragmentation average = 0
	minimum = 0
	maximum = 0
Injected packet rate average = 0.053125
	minimum = 0.042 (at node 10)
	maximum = 0.0626667 (at node 0)
Accepted packet rate average = 0.0533333
	minimum = 0.0466667 (at node 8)
	maximum = 0.0693333 (at node 6)
Injected flit rate average = 0.053125
	minimum = 0.042 (at node 10)
	maximum = 0.0626667 (at node 0)
Accepted flit rate average= 0.0533333
	minimum = 0.0466667 (at node 8)
	maximum = 0.0693333 (at node 6)
Injected packet length average = 1
Accepted packet length average = 1
Total in-flight flits = 14 (14 measured)
latency change    = 0.000588807
throughput change = 0.00273438
Class 0:
Packet latency average = 20.3439
	minimum = 7
	maximum = 57
Network latency average = 20.3439
	minimum = 7
	maximum = 57
Slowest packet = 24042
Flit latency average = 20.3644
	minimum = 7
	maximum = 57
Slowest flit = 24042
Fragmentation average = 0
	minimum = 0
	maximum = 0
Injected packet rate average = 0.0536563
	minimum = 0.045 (at node 5)
	maximum = 0.0615 (at node 0)
Accepted packet rate average = 0.0539375
	minimum = 0.0465 (at node 8)
	maximum = 0.067 (at node 6)
Injected flit rate average = 0.0536563
	minimum = 0.045 (at node 5)
	maximum = 0.0615 (at node 0)
Accepted flit rate average= 0.0539375
	minimum = 0.0465 (at node 8)
	maximum = 0.067 (at node 6)
Injected packet length average = 1
Accepted packet length average = 1
Total in-flight flits = 10 (10 measured)
latency change    = 0.000287275
throughput change = 0.0112012
Class 0:
Packet latency average = 20.2936
	minimum = 7
	maximum = 57
Network latency average = 20.2936
	minimum = 7
	maximum = 57
Slowest packet = 24042
Flit latency average = 20.3107
	minimum = 7
	maximum = 57
Slowest flit = 24042
Fragmentation average = 0
	minimum = 0
	maximum = 0
Injected packet rate average = 0.05305
	minimum = 0.0444 (at node 5)
	maximum = 0.0608 (at node 14)
Accepted packet rate average = 0.0531
	minimum = 0.0456 (at node 13)
	maximum = 0.0644 (at node 6)
Injected flit rate average = 0.05305
	minimum = 0.0444 (at node 5)
	maximum = 0.0608 (at node 14)
Accepted flit rate average= 0.0531
	minimum = 0.0456 (at node 13)
	maximum = 0.0644 (at node 6)
Injected packet length average = 1
Accepted packet length average = 1
Total in-flight flits = 17 (17 measured)
latency change    = 0.00247819
throughput change = 0.0157721
Draining all recorded packets ...
Draining remaining packets ...
Time taken is 4065 cycles
Class 0:
Packet latency average = 20.4892
	minimum = 7
	maximum = 45
Network latency average = 20.4892
	minimum = 7
	maximum = 45
Slowest packet = 25266
Flit latency average = 20.4892
	minimum = 7
	maximum = 45
Slowest flit = 25266
Fragmentation average = 0
	minimum = 0
	maximum = 0
Injected packet rate average = 0.04825
	minimum = 0.034 (at node 8)
	maximum = 0.072 (at node 13)
Accepted packet rate average = 0.0465
	minimum = 0.038 (at node 5)
	maximum = 0.06 (at node 13)
Injected flit rate average = 0.04825
	minimum = 0.034 (at node 8)
	maximum = 0.072 (at node 13)
Accepted flit rate average= 0.0465
	minimum = 0.038 (at node 5)
	maximum = 0.06 (at node 13)
Injected packet length average = 1
Accepted packet length average = 1
Total in-flight flits = 14 (0 measured)
latency change    = 1
throughput change = 1
Class 0:
Packet latency average = 20.5351
	minimum = 7
	maximum = 58
Network latency average = 20.5351
	minimum = 7
	maximum = 58
Slowest packet = 25597
Flit latency average = 20.5351
	minimum = 7
	maximum = 58
Slowest flit = 25597
Fragmentation average = 0
	minimum = 0
	maximum = 0
Injected packet rate average = 0.0496875
	minimum = 0.038 (at node 5)
	maximum = 0.068 (at node 13)
Accepted packet rate average = 0.0489375
	minimum = 0.041 (at node 14)
	maximum = 0.054 (at node 8)
Injected flit rate average = 0.0496875
	minimum = 0.038 (at node 5)
	maximum = 0.068 (at node 13)
Accepted flit rate average= 0.0489375
	minimum = 0.041 (at node 14)
	maximum = 0.054 (at node 8)
Injected packet length average = 1
Accepted packet length average = 1
Total in-flight flits = 12 (0 measured)
latency change    = 0.00223393
throughput change = 0.0498084
Class 0:
Packet latency average = 20.1516
	minimum = 7
	maximum = 48
Network latency average = 20.1516
	minimum = 7
	maximum = 48
Slowest packet = 26232
Flit latency average = 20.1516
	minimum = 7
	maximum = 48
Slowest flit = 26232
Fragmentation average = 0
	minimum = 0
	maximum = 0
Injected packet rate average = 0.051375
	minimum = 0.032 (at node 10)
	maximum = 0.062 (at node 15)
Accepted packet rate average = 0.051125
	minimum = 0.032 (at node 5)
	maximum = 0.072 (at node 13)
Injected flit rate average = 0.051375
	minimum = 0.032 (at node 10)
	maximum = 0.062 (at node 15)
Accepted flit rate average= 0.051125
	minimum = 0.032 (at node 5)
	maximum = 0.072 (at node 13)
Injected packet length average = 1
Accepted packet length average = 1
Total in-flight flits = 14 (0 measured)
latency change    = 0.0190323
throughput change = 0.0427873
Warmed up ...Time used is 1500 cycles
Class 0:
Packet latency average = 19.5642
	minimum = 7
	maximum = 48
Network latency average = 19.5642
	minimum = 7
	maximum = 48
Slowest packet = 26501
Flit latency average = 19.6778
	minimum = 7
	maximum = 48
Slowest flit = 26501
Fragmentation average = 0
	minimum = 0
	maximum = 0
Injected packet rate average = 0.04875
	minimum = 0.038 (at node 13)
	maximum = 0.06 (at node 6)
Accepted packet rate average = 0.0485
	minimum = 0.026 (at node 0)
	maximum = 0.066 (at node 10)
Injected flit rate average = 0.04875
	minimum = 0.038 (at node 13)
	maximum = 0.06 (at node 6)
Accepted flit rate average= 0.0485
	minimum = 0.026 (at node 0)
	maximum = 0.066 (at node 10)
Injected packet length average = 1
Accepted packet length average = 1
Total in-flight flits = 16 (16 measured)
latency change    = 0.0300252
throughput change = 0.0541237
Class 0:
Packet latency average = 20.2773
	minimum = 7
	maximum = 48
Network latency average = 20.2773
	minimum = 7
	maximum = 48
Slowest packet = 26501
Flit latency average = 20.3194
	minimum = 7
	maximum = 48
Slowest flit = 26501
Fragmentation average = 0
	minimum = 0
	maximum = 0
Injected packet rate average = 0.0504375
	minimum = 0.043 (at node 13)
	maximum = 0.063 (at node 8)
Accepted packet rate average = 0.0506875
	minimum = 0.035 (at node 2)
	maximum = 0.063 (at node 5)
Injected flit rate average = 0.0504375
	minimum = 0.043 (at node 13)
	maximum = 0.063 (at node 8)
Accepted flit rate average= 0.0506875
	minimum = 0.035 (at node 2)
	maximum = 0.063 (at node 5)
Injected packet length average = 1
Accepted packet length average = 1
Total in-flight flits = 10 (10 measured)
latency change    = 0.0351683
throughput change = 0.0431566
Class 0:
Packet latency average = 20.146
	minimum = 7
	maximum = 48
Network latency average = 20.146
	minimum = 7
	maximum = 48
Slowest packet = 26501
Flit latency average = 20.1758
	minimum = 7
	maximum = 48
Slowest flit = 26501
Fragmentation average = 0
	minimum = 0
	maximum = 0
Injected packet rate average = 0.0502917
	minimum = 0.0406667 (at node 13)
	maximum = 0.0606667 (at node 8)
Accepted packet rate average = 0.05025
	minimum = 0.0366667 (at node 2)
	maximum = 0.0633333 (at node 5)
Injected flit rate average = 0.0502917
	minimum = 0.0406667 (at node 13)
	maximum = 0.0606667 (at node 8)
Accepted flit rate average= 0.05025
	minimum = 0.0366667 (at node 2)
	maximum = 0.0633333 (at node 5)
Injected packet length average = 1
Accepted packet length average = 1
Total in-flight flits = 15 (15 measured)
latency change    = 0.00651826
throughput change = 0.00870647
Class 0:
Packet latency average = 20.0266
	minimum = 7
	maximum = 48
Network latency average = 20.0266
	minimum = 7
	maximum = 48
Slowest packet = 26501
Flit latency average = 20.0497
	minimum = 7
	maximum = 48
Slowest flit = 26501
Fragmentation average = 0
	minimum = 0
	maximum = 0
Injected packet rate average = 0.0509375
	minimum = 0.044 (at node 4)
	maximum = 0.061 (at node 8)
Accepted packet rate average = 0.0509063
	minimum = 0.0425 (at node 2)
	maximum = 0.0625 (at node 5)
Injected flit rate average = 0.0509375
	minimum = 0.044 (at node 4)
	maximum = 0.061 (at node 8)
Accepted flit rate average= 0.0509063
	minimum = 0.0425 (at node 2)
	maximum = 0.0625 (at node 5)
Injected packet length average = 1
Accepted packet length average = 1
Total in-flight flits = 15 (15 measured)
latency change    = 0.00595945
throughput change = 0.0128913
Draining all recorded packets ...
Draining remaining packets ...
Time taken is 3560 cycles
Class 0:
Packet latency average = 21.1568
	minimum = 7
	maximum = 48
Network latency average = 21.1568
	minimum = 7
	maximum = 48
Slowest packet = 28338
Flit latency average = 21.1568
	minimum = 7
	maximum = 48
Slowest flit = 28338
Fragmentation average = 0
	minimum = 0
	maximum = 0
Injected packet rate average = 0.05
	minimum = 0.03 (at node 9)
	maximum = 0.072 (at node 8)
Accepted packet rate average = 0.048625
	minimum = 0.032 (at node 7)
	maximum = 0.06 (at node 12)
Injected flit rate average = 0.05
	minimum = 0.03 (at node 9)
	maximum = 0.072 (at node 8)
Accepted flit rate average= 0.048625
	minimum = 0.032 (at node 7)
	maximum = 0.06 (at node 12)
Injected packet length average = 1
Accepted packet length average = 1
Total in-flight flits = 11 (0 measured)
latency change    = 1
throughput change = 1
Class 0:
Packet latency average = 20.4054
	minimum = 7
	maximum = 48
Network latency average = 20.4054
	minimum = 7
	maximum = 48
Slowest packet = 28338
Flit latency average = 20.4054
	minimum = 7
	maximum = 48
Slowest flit = 28338
Fragmentation average = 0
	minimum = 0
	maximum = 0
Injected packet rate average = 0.0498125
	minimum = 0.037 (at node 15)
	maximum = 0.065 (at node 8)
Accepted packet rate average = 0.048875
	minimum = 0.038 (at node 7)
	maximum = 0.063 (at node 5)
Injected flit rate average = 0.0498125
	minimum = 0.037 (at node 15)
	maximum = 0.065 (at node 8)
Accepted flit rate average= 0.048875
	minimum = 0.038 (at node 7)
	maximum = 0.063 (at node 5)
Injected packet length average = 1
Accepted packet length average = 1
Total in-flight flits = 15 (0 measured)
latency change    = 0.0368257
throughput change = 0.00511509
Class 0:
Packet latency average = 20.7342
	minimum = 7
	maximum = 45
Network latency average = 20.7291
	minimum = 7
	maximum = 45
Slowest packet = 29093
Flit latency average = 20.7291
	minimum = 7
	maximum = 45
Slowest flit = 29093
Fragmentation average = 0
	minimum = 0
	maximum = 0
Injected packet rate average = 0.05
	minimum = 0.034 (at node 9)
	maximum = 0.072 (at node 0)
Accepted packet rate average = 0.049375
	minimum = 0.042 (at node 0)
	maximum = 0.068 (at node 3)
Injected flit rate average = 0.05
	minimum = 0.034 (at node 9)
	maximum = 0.072 (at node 0)
Accepted flit rate average= 0.049375
	minimum = 0.042 (at node 0)
	maximum = 0.068 (at node 3)
Injected packet length average = 1
Accepted packet length average = 1
Total in-flight flits = 20 (0 measured)
latency change    = 0.0158582
throughput change = 0.0101266
Warmed up ...Time used is 1500 cycles
Class 0:
Packet latency average = 19.1619
	minimum = 7
	maximum = 44
Network latency average = 19.1619
	minimum = 7
	maximum = 44
Slowest packet = 29542
Flit latency average = 19.6559
	minimum = 7
	maximum = 53
Slowest flit = 29222
Fragmentation average = 0
	minimum = 0
	maximum = 0
Injected packet rate average = 0.045625
	minimum = 0.032 (at node 4)
	maximum = 0.07 (at node 9)
Accepted packet rate average = 0.0465
	minimum = 0.038 (at node 2)
	maximum = 0.058 (at node 1)
Injected flit rate average = 0.045625
	minimum = 0.032 (at node 4)
	maximum = 0.07 (at node 9)
Accepted flit rate average= 0.0465
	minimum = 0.038 (at node 2)
	maximum = 0.058 (at node 1)
Injected packet length average = 1
Accepted packet length average = 1
Total in-flight flits = 13 (13 measured)
latency change    = 0.0820505
throughput change = 0.061828
Class 0:
Packet latency average = 19.8488
	minimum = 7
	maximum = 44
Network latency average = 19.8488
	minimum = 7
	maximum = 44
Slowest packet = 29542
Flit latency average = 20.0685
	minimum = 7
	maximum = 53
Slowest flit = 29222
Fragmentation average = 0
	minimum = 0
	maximum = 0
Injected packet rate average = 0.047875
	minimum = 0.034 (at node 3)
	maximum = 0.06 (at node 10)
Accepted packet rate average = 0.048375
	minimum = 0.04 (at node 13)
	maximum = 0.054 (at node 9)
Injected flit rate average = 0.047875
	minimum = 0.034 (at node 3)
	maximum = 0.06 (at node 10)
Accepted flit rate average= 0.048375
	minimum = 0.04 (at node 13)
	maximum = 0.054 (at node 9)
Injected packet length average = 1
Accepted packet length average = 1
Total in-flight flits = 12 (12 measured)
latency change    = 0.0346053
throughput change = 0.0387597
Class 0:
Packet latency average = 19.9232
	minimum = 7
	maximum = 44
Network latency average = 19.9232
	minimum = 7
	maximum = 44
Slowest packet = 29542
Flit latency average = 20.0694
	minimum = 7
	maximum = 53
Slowest flit = 29222
Fragmentation average = 0
	minimum = 0
	maximum = 0
Injected packet rate average = 0.0479167
	minimum = 0.042 (at node 4)
	maximum = 0.056 (at node 5)
Accepted packet rate average = 0.0480417
	minimum = 0.0433333 (at node 5)
	maximum = 0.054 (at node 8)
Injected flit rate average = 0.0479167
	minimum = 0.042 (at node 4)
	maximum = 0.056 (at node 5)
Accepted flit rate average= 0.0480417
	minimum = 0.0433333 (at node 5)
	maximum = 0.054 (at node 8)
Injected packet length average = 1
Accepted packet length average = 1
Total in-flight flits = 17 (17 measured)
latency change    = 0.00373466
throughput change = 0.00693842
Class 0:
Packet latency average = 20.1964
	minimum = 7
	maximum = 52
Network latency average = 20.1964
	minimum = 7
	maximum = 52
Slowest packet = 30604
Flit latency average = 20.2997
	minimum = 7
	maximum = 53
Slowest flit = 29222
Fragmentation average = 0
	minimum = 0
	maximum = 0
Injected packet rate average = 0.049
	minimum = 0.0435 (at node 2)
	maximum = 0.0565 (at node 5)
Accepted packet rate average = 0.0493125
	minimum = 0.0445 (at node 5)
	maximum = 0.0605 (at node 15)
Injected flit rate average = 0.049
	minimum = 0.0435 (at node 2)
	maximum = 0.0565 (at node 5)
Accepted flit rate average= 0.0493125
	minimum = 0.0445 (at node 5)
	maximum = 0.0605 (at node 15)
Injected packet length average = 1
Accepted packet length average = 1
Total in-flight flits = 10 (10 measured)
latency change    = 0.0135268
throughput change = 0.025771
Draining all recorded packets ...
Draining remaining packets ...
Time taken is 3565 cycles
Class 0:
Packet latency average = 19.7302
	minimum = 7
	maximum = 39
Network latency average = 19.7302
	minimum = 7
	maximum = 39
Slowest packet = 31193
Flit latency average = 19.7302
	minimum = 7
	maximum = 39
Slowest flit = 31193
Fragmentation average = 0
	minimum = 0
	maximum = 0
Injected packet rate average = 0.04925
	minimum = 0.032 (at node 2)
	maximum = 0.072 (at node 13)
Accepted packet rate average = 0.04725
	minimum = 0.03 (at node 9)
	maximum = 0.066 (at node 11)
Injected flit rate average = 0.04925
	minimum = 0.032 (at node 2)
	maximum = 0.072 (at node 13)
Accepted flit rate average= 0.04725
	minimum = 0.03 (at node 9)
	maximum = 0.066 (at node 11)
Injected packet length average = 1
Accepted packet length average = 1
Total in-flight flits = 16 (0 measured)
latency change    = 1
throughput change = 1
Class 0:
Packet latency average = 19.9657
	minimum = 7
	maximum = 42
Network latency average = 19.9657
	minimum = 7
	maximum = 42
Slowest packet = 31450
Flit latency average = 19.9657
	minimum = 7
	maximum = 42
Slowest flit = 31450
Fragmentation average = 0
	minimum = 0
	maximum = 0
Injected packet rate average = 0.048125
	minimum = 0.032 (at node 2)
	maximum = 0.06 (at node 11)
Accepted packet rate average = 0.047375
	minimum = 0.034 (at node 10)
	maximum = 0.07 (at node 11)
Injected flit rate average = 0.048125
	minimum = 0.032 (at node 2)
	maximum = 0.06 (at node 11)
Accepted flit rate average= 0.047375
	minimum = 0.034 (at node 10)
	maximum = 0.07 (at node 11)
Injected packet length average = 1
Accepted packet length average = 1
Total in-flight flits = 12 (0 measured)
latency change    = 0.0117973
throughput change = 0.00263852
Class 0:
Packet latency average = 20.3156
	minimum = 7
	maximum = 39
Network latency average = 20.3156
	minimum = 7
	maximum = 39
Slowest packet = 31687
Flit latency average = 20.3156
	minimum = 7
	maximum = 39
Slowest flit = 31687
Fragmentation average = 0
	minimum = 0
	maximum = 0
Injected packet rate average = 0.045125
	minimum = 0.032 (at node 10)
	maximum = 0.06 (at node 15)
Accepted packet rate average = 0.04475
	minimum = 0.034 (at node 8)
	maximum = 0.066 (at node 12)
Injected flit rate average = 0.045125
	minimum = 0.032 (at node 10)
	maximum = 0.06 (at node 15)
Accepted flit rate average= 0.04475
	minimum = 0.034 (at node 8)
	maximum = 0.066 (at node 12)
Injected packet length average = 1
Accepted packet length average = 1
Total in-flight flits = 15 (0 measured)
latency change    = 0.0172253
throughput change = 0.0586592
Warmed up ...Time used is 1500 cycles
Class 0:
Packet latency average = 20.9869
	minimum = 7
	maximum = 57
Network latency average = 20.9869
	minimum = 7
	maximum = 57
Slowest packet = 32285
Flit latency average = 21.1587
	minimum = 7
	maximum = 57
Slowest flit = 32285
Fragmentation average = 0
	minimum = 0
	maximum = 0
Injected packet rate average = 0.049875
	minimum = 0.03 (at node 12)
	maximum = 0.064 (at node 5)
Accepted packet rate average = 0.049625
	minimum = 0.036 (at node 4)
	maximum = 0.064 (at node 12)
Injected flit rate average = 0.049875
	minimum = 0.03 (at node 12)
	maximum = 0.064 (at node 5)
Accepted flit rate average= 0.049625
	minimum = 0.036 (at node 4)
	maximum = 0.064 (at node 12)
Injected packet length average = 1
Accepted packet length average = 1
Total in-flight flits = 17 (17 measured)
latency change    = 0.0319851
throughput change = 0.0982368
Class 0:
Packet latency average = 20.6909
	minimum = 7
	maximum = 57
Network latency average = 20.6909
	minimum = 7
	maximum = 57
Slowest packet = 32285
Flit latency average = 20.782
	minimum = 7
	maximum = 57
Slowest flit = 32285
Fragmentation average = 0
	minimum = 0
	maximum = 0
Injected packet rate average = 0.0496875
	minimum = 0.035 (at node 6)
	maximum = 0.064 (at node 1)
Accepted packet rate average = 0.049875
	minimum = 0.035 (at node 11)
	maximum = 0.066 (at node 12)
Injected flit rate average = 0.0496875
	minimum = 0.035 (at node 6)
	maximum = 0.064 (at node 1)
Accepted flit rate average= 0.049875
	minimum = 0.035 (at node 11)
	maximum = 0.066 (at node 12)
Injected packet length average = 1
Accepted packet length average = 1
Total in-flight flits = 12 (12 measured)
latency change    = 0.0143048
throughput change = 0.00501253
Class 0:
Packet latency average = 20.5131
	minimum = 7
	maximum = 57
Network latency average = 20.5131
	minimum = 7
	maximum = 57
Slowest packet = 32285
Flit latency average = 20.5757
	minimum = 7
	maximum = 57
Slowest flit = 32285
Fragmentation average = 0
	minimum = 0
	maximum = 0
Injected packet rate average = 0.0502083
	minimum = 0.0366667 (at node 6)
	maximum = 0.0586667 (at node 2)
Accepted packet rate average = 0.0500833
	minimum = 0.0353333 (at node 11)
	maximum = 0.0633333 (at node 1)
Injected flit rate average = 0.0502083
	minimum = 0.0366667 (at node 6)
	maximum = 0.0586667 (at node 2)
Accepted flit rate average= 0.0500833
	minimum = 0.0353333 (at node 11)
	maximum = 0.0633333 (at node 1)
Injected packet length average = 1
Accepted packet length average = 1
Total in-flight flits = 18 (18 measured)
latency change    = 0.00867127
throughput change = 0.00415973
Class 0:
Packet latency average = 20.436
	minimum = 7
	maximum = 57
Network latency average = 20.436
	minimum = 7
	maximum = 57
Slowest packet = 32285
Flit latency average = 20.4838
	minimum = 7
	maximum = 57
Slowest flit = 32285
Fragmentation average = 0
	minimum = 0
	maximum = 0
Injected packet rate average = 0.0500937
	minimum = 0.0375 (at node 6)
	maximum = 0.0575 (at node 2)
Accepted packet rate average = 0.0500625
	minimum = 0.038 (at node 11)
	maximum = 0.0615 (at node 12)
Injected flit rate average = 0.0500937
	minimum = 0.0375 (at node 6)
	maximum = 0.0575 (at node 2)
Accepted flit rate average= 0.0500625
	minimum = 0.038 (at node 11)
	maximum = 0.0615 (at node 12)
Injected packet length average = 1
Accepted packet length average = 1
Total in-flight flits = 16 (16 measured)
latency change    = 0.0037686
throughput change = 0.000416146
Draining all recorded packets ...
Draining remaining packets ...
Time taken is 3562 cycles
Class 0:
Packet latency average = 20.6773
	minimum = 7
	maximum = 43
Network latency average = 20.6773
	minimum = 7
	maximum = 43
Slowest packet = 33680
Flit latency average = 20.6773
	minimum = 7
	maximum = 43
Slowest flit = 33680
Fragmentation average = 0
	minimum = 0
	maximum = 0
Injected packet rate average = 0.049
	minimum = 0.026 (at node 1)
	maximum = 0.074 (at node 15)
Accepted packet rate average = 0.046875
	minimum = 0.03 (at node 4)
	maximum = 0.066 (at node 15)
Injected flit rate average = 0.049
	minimum = 0.026 (at node 1)
	maximum = 0.074 (at node 15)
Accepted flit rate average= 0.046875
	minimum = 0.03 (at node 4)
	maximum = 0.066 (at node 15)
Injected packet length average = 1
Accepted packet length average = 1
Total in-flight flits = 17 (0 measured)
latency change    = 1
throughput change = 1
Class 0:
Packet latency average = 20.863
	minimum = 7
	maximum = 57
Network latency average = 20.863
	minimum = 7
	maximum = 57
Slowest packet = 34204
Flit latency average = 20.863
	minimum = 7
	maximum = 57
Slowest flit = 34204
Fragmentation average = 0
	minimum = 0
	maximum = 0
Injected packet rate average = 0.048
	minimum = 0.035 (at node 1)
	maximum = 0.057 (at node 4)
Accepted packet rate average = 0.047
	minimum = 0.03 (at node 2)
	maximum = 0.061 (at node 15)
Injected flit rate average = 0.048
	minimum = 0.035 (at node 1)
	maximum = 0.057 (at node 4)
Accepted flit rate average= 0.047
	minimum = 0.03 (at node 2)
	maximum = 0.061 (at node 15)
Injected packet length average = 1
Accepted packet length average = 1
Total in-flight flits = 16 (0 measured)
latency change    = 0.00890084
throughput change = 0.00265957
Class 0:
Packet latency average = 20.5087
	minimum = 7
	maximum = 56
Network latency average = 20.5087
	minimum = 7
	maximum = 56
Slowest packet = 34427
Flit latency average = 20.5087
	minimum = 7
	maximum = 56
Slowest flit = 34427
Fragmentation average = 0
	minimum = 0
	maximum = 0
Injected packet rate average = 0.051125
	minimum = 0.04 (at node 0)
	maximum = 0.06 (at node 10)
Accepted packet rate average = 0.050375
	minimum = 0.024 (at node 8)
	maximum = 0.074 (at node 4)
Injected flit rate average = 0.051125
	minimum = 0.04 (at node 0)
	maximum = 0.06 (at node 10)
Accepted flit rate average= 0.050375
	minimum = 0.024 (at node 8)
	maximum = 0.074 (at node 4)
Injected packet length average = 1
Accepted packet length average = 1
Total in-flight flits = 22 (0 measured)
latency change    = 0.0172779
throughput change = 0.0669975
Warmed up ...Time used is 1500 cycles
Class 0:
Packet latency average = 20.5355
	minimum = 7
	maximum = 50
Network latency average = 20.5355
	minimum = 7
	maximum = 50
Slowest packet = 35057
Flit latency average = 20.6667
	minimum = 7
	maximum = 50
Slowest flit = 35057
Fragmentation average = 0
	minimum = 0
	maximum = 0
Injected packet rate average = 0.05475
	minimum = 0.038 (at node 3)
	maximum = 0.066 (at node 7)
Accepted packet rate average = 0.0555
	minimum = 0.036 (at node 8)
	maximum = 0.074 (at node 4)
Injected flit rate average = 0.05475
	minimum = 0.038 (at node 3)
	maximum = 0.066 (at node 7)
Accepted flit rate average= 0.0555
	minimum = 0.036 (at node 8)
	maximum = 0.074 (at node 4)
Injected packet length average = 1
Accepted packet length average = 1
Total in-flight flits = 16 (16 measured)
latency change    = 0.00130798
throughput change = 0.0923423
Class 0:
Packet latency average = 20.3392
	minimum = 7
	maximum = 50
Network latency average = 20.3392
	minimum = 7
	maximum = 50
Slowest packet = 35057
Flit latency average = 20.415
	minimum = 7
	maximum = 50
Slowest flit = 35057
Fragmentation average = 0
	minimum = 0
	maximum = 0
Injected packet rate average = 0.0511875
	minimum = 0.04 (at node 13)
	maximum = 0.061 (at node 7)
Accepted packet rate average = 0.0515
	minimum = 0.042 (at node 8)
	maximum = 0.063 (at node 4)
Injected flit rate average = 0.0511875
	minimum = 0.04 (at node 13)
	maximum = 0.061 (at node 7)
Accepted flit rate average= 0.0515
	minimum = 0.042 (at node 8)
	maximum = 0.063 (at node 4)
Injected packet length average = 1
Accepted packet length average = 1
Total in-flight flits = 17 (17 measured)
latency change    = 0.0096559
throughput change = 0.0776699
Class 0:
Packet latency average = 20.2446
	minimum = 7
	maximum = 50
Network latency average = 20.2446
	minimum = 7
	maximum = 50
Slowest packet = 35057
Flit latency average = 20.2971
	minimum = 7
	maximum = 50
Slowest flit = 35057
Fragmentation average = 0
	minimum = 0
	maximum = 0
Injected packet rate average = 0.0510833
	minimum = 0.042 (at node 13)
	maximum = 0.06 (at node 7)
Accepted packet rate average = 0.0513333
	minimum = 0.0446667 (at node 8)
	maximum = 0.0613333 (at node 1)
Injected flit rate average = 0.0510833
	minimum = 0.042 (at node 13)
	maximum = 0.06 (at node 7)
Accepted flit rate average= 0.0513333
	minimum = 0.0446667 (at node 8)
	maximum = 0.0613333 (at node 1)
Injected packet length average = 1
Accepted packet length average = 1
Total in-flight flits = 16 (16 measured)
latency change    = 0.00466909
throughput change = 0.00324675
Class 0:
Packet latency average = 20.1701
	minimum = 7
	maximum = 50
Network latency average = 20.1701
	minimum = 7
	maximum = 50
Slowest packet = 35057
Flit latency average = 20.2107
	minimum = 7
	maximum = 50
Slowest flit = 35057
Fragmentation average = 0
	minimum = 0
	maximum = 0
Injected packet rate average = 0.0509375
	minimum = 0.042 (at node 13)
	maximum = 0.056 (at node 0)
Accepted packet rate average = 0.0510313
	minimum = 0.0445 (at node 8)
	maximum = 0.0625 (at node 1)
Injected flit rate average = 0.0509375
	minimum = 0.042 (at node 13)
	maximum = 0.056 (at node 0)
Accepted flit rate average= 0.0510313
	minimum = 0.0445 (at node 8)
	maximum = 0.0625 (at node 1)
Injected packet length average = 1
Accepted packet length average = 1
Total in-flight flits = 19 (19 measured)
latency change    = 0.00369594
throughput change = 0.00591958
Class 0:
Packet latency average = 20.1983
	minimum = 7
	maximum = 50
Network latency average = 20.1983
	minimum = 7
	maximum = 50
Slowest packet = 35057
Flit latency average = 20.2305
	minimum = 7
	maximum = 50
Slowest flit = 35057
Fragmentation average = 0
	minimum = 0
	maximum = 0
Injected packet rate average = 0.05105
	minimum = 0.0452 (at node 5)
	maximum = 0.056 (at node 0)
Accepted packet rate average = 0.050975
	minimum = 0.044 (at node 8)
	maximum = 0.0576 (at node 0)
Injected flit rate average = 0.05105
	minimum = 0.0452 (at node 5)
	maximum = 0.056 (at node 0)
Accepted flit rate average= 0.050975
	minimum = 0.044 (at node 8)
	maximum = 0.0576 (at node 0)
Injected packet length average = 1
Accepted packet length average = 1
Total in-flight flits = 25 (25 measured)
latency change    = 0.00139782
throughput change = 0.00110348
Draining all recorded packets ...
Draining remaining packets ...
Time taken is 4061 cycles
Class 0:
Packet latency average = 20.3872
	minimum = 7
	maximum = 43
Network latency average = 20.3872
	minimum = 7
	maximum = 43
Slowest packet = 36911
Flit latency average = 20.3872
	minimum = 7
	maximum = 43
Slowest flit = 36911
Fragmentation average = 0
	minimum = 0
	maximum = 0
Injected packet rate average = 0.04675
	minimum = 0.034 (at node 11)
	maximum = 0.06 (at node 14)
Accepted packet rate average = 0.044875
	minimum = 0.028 (at node 4)
	maximum = 0.06 (at node 0)
Injected flit rate average = 0.04675
	minimum = 0.034 (at node 11)
	maximum = 0.06 (at node 14)
Accepted flit rate average= 0.044875
	minimum = 0.028 (at node 4)
	maximum = 0.06 (at node 0)
Injected packet length average = 1
Accepted packet length average = 1
Total in-flight flits = 15 (0 measured)
latency change    = 1
throughput change = 1
Class 0:
Packet latency average = 20.245
	minimum = 7
	maximum = 55
Network latency average = 20.245
	minimum = 7
	maximum = 55
Slowest packet = 37238
Flit latency average = 20.245
	minimum = 7
	maximum = 55
[...]
	minimum = 7
	maximum = 55
Slowest flit = 126926
Fragmentation average = 0
	minimum = 0
	maximum = 0
Injected packet rate average = 0.050225
	minimum = 0.0456 (at node 8)
	maximum = 0.0556 (at node 2)
Accepted packet rate average = 0.050375
	minimum = 0.0416 (at node 10)
	maximum = 0.056 (at node 14)
Injected flit rate average = 0.050225
	minimum = 0.0456 (at node 8)
	maximum = 0.0556 (at node 2)
Accepted flit rate average= 0.050375
	minimum = 0.0416 (at node 10)
	maximum = 0.056 (at node 14)
Injected packet length average = 1
Accepted packet length average = 1
Total in-flight flits = 14 (14 measured)
latency change    = 0.00435185
throughput change = 0.00372208
Draining all recorded packets ...
Draining remaining packets ...
Time taken is 4054 cycles
Class 0:
Packet latency average = 20.5204
	minimum = 7
	maximum = 66
Network latency average = 20.5204
	minimum = 7
	maximum = 66
Slowest packet = 127799
Flit latency average = 20.5204
	minimum = 7
	maximum = 66
Slowest flit = 127799
Fragmentation average = 0
	minimum = 0
	maximum = 0
Injected packet rate average = 0.047625
	minimum = 0.032 (at node 5)
	maximum = 0.06 (at node 4)
Accepted packet rate average = 0.045875
	minimum = 0.028 (at node 5)
	maximum = 0.06 (at node 0)
Injected flit rate average = 0.047625
	minimum = 0.032 (at node 5)
	maximum = 0.06 (at node 4)
Accepted flit rate average= 0.045875
	minimum = 0.028 (at node 5)
	maximum = 0.06 (at node 0)
Injected packet length average = 1
Accepted packet length average = 1
Total in-flight flits = 14 (0 measured)
latency change    = 1
throughput change = 1
Class 0:
Packet latency average = 20.8185
	minimum = 7
	maximum = 66
Network latency average = 20.8185
	minimum = 7
	maximum = 66
Slowest packet = 127799
Flit latency average = 20.8185
	minimum = 7
	maximum = 66
Slowest flit = 127799
Fragmentation average = 0
	minimum = 0
	maximum = 0
Injected packet rate average = 0.0481875
	minimum = 0.037 (at node 1)
	maximum = 0.065 (at node 10)
Accepted packet rate average = 0.0471875
	minimum = 0.032 (at node 14)
	maximum = 0.06 (at node 4)
Injected flit rate average = 0.0481875
	minimum = 0.037 (at node 1)
	maximum = 0.065 (at node 10)
Accepted flit rate average= 0.0471875
	minimum = 0.032 (at node 14)
	maximum = 0.06 (at node 4)
Injected packet length average = 1
Accepted packet length average = 1
Total in-flight flits = 16 (0 measured)
latency change    = 0.0143193
throughput change = 0.0278146
Class 0:
Packet latency average = 20.2414
	minimum = 7
	maximum = 40
Network latency average = 20.2414
	minimum = 7
	maximum = 40
Slowest packet = 128857
Flit latency average = 20.2414
	minimum = 7
	maximum = 40
Slowest flit = 128857
Fragmentation average = 0
	minimum = 0
	maximum = 0
Injected packet rate average = 0.050375
	minimum = 0.036 (at node 3)
	maximum = 0.074 (at node 14)
Accepted packet rate average = 0.05075
	minimum = 0.026 (at node 9)
	maximum = 0.072 (at node 13)
Injected flit rate average = 0.050375
	minimum = 0.036 (at node 3)
	maximum = 0.074 (at node 14)
Accepted flit rate average= 0.05075
	minimum = 0.026 (at node 9)
	maximum = 0.072 (at node 13)
Injected packet length average = 1
Accepted packet length average = 1
Total in-flight flits = 13 (0 measured)
latency change    = 0.0285141
throughput change = 0.070197
Warmed up ...Time used is 1500 cycles
Class 0:
Packet latency average = 20.1873
	minimum = 7
	maximum = 41
Network latency average = 20.1873
	minimum = 7
	maximum = 41
Slowest packet = 129016
Flit latency average = 20.3271
	minimum = 7
	maximum = 41
Slowest flit = 129016
Fragmentation average = 0
	minimum = 0
	maximum = 0
Injected packet rate average = 0.04725
	minimum = 0.032 (at node 3)
	maximum = 0.064 (at node 1)
Accepted packet rate average = 0.047
	minimum = 0.028 (at node 7)
	maximum = 0.064 (at node 2)
Injected flit rate average = 0.04725
	minimum = 0.032 (at node 3)
	maximum = 0.064 (at node 1)
Accepted flit rate average= 0.047
	minimum = 0.028 (at node 7)
	maximum = 0.064 (at node 2)
Injected packet length average = 1
Accepted packet length average = 1
Total in-flight flits = 15 (15 measured)
latency change    = 0.0026775
throughput change = 0.0797872
Class 0:
Packet latency average = 19.743
	minimum = 7
	maximum = 44
Network latency average = 19.743
	minimum = 7
	maximum = 44
Slowest packet = 129520
Flit latency average = 19.8194
	minimum = 7
	maximum = 44
Slowest flit = 129520
Fragmentation average = 0
	minimum = 0
	maximum = 0
Injected packet rate average = 0.0480625
	minimum = 0.037 (at node 2)
	maximum = 0.062 (at node 1)
Accepted packet rate average = 0.04775
	minimum = 0.039 (at node 9)
	maximum = 0.06 (at node 13)
Injected flit rate average = 0.0480625
	minimum = 0.037 (at node 2)
	maximum = 0.062 (at node 1)
Accepted flit rate average= 0.04775
	minimum = 0.039 (at node 9)
	maximum = 0.06 (at node 13)
Injected packet length average = 1
Accepted packet length average = 1
Total in-flight flits = 18 (18 measured)
latency change    = 0.0225051
throughput change = 0.0157068
Class 0:
Packet latency average = 19.7772
	minimum = 7
	maximum = 55
Network latency average = 19.7772
	minimum = 7
	maximum = 55
Slowest packet = 130006
Flit latency average = 19.8266
	minimum = 7
	maximum = 55
Slowest flit = 130006
Fragmentation average = 0
	minimum = 0
	maximum = 0
Injected packet rate average = 0.0488333
	minimum = 0.042 (at node 10)
	maximum = 0.0613333 (at node 6)
Accepted packet rate average = 0.0487917
	minimum = 0.0406667 (at node 12)
	maximum = 0.0566667 (at node 6)
Injected flit rate average = 0.0488333
	minimum = 0.042 (at node 10)
	maximum = 0.0613333 (at node 6)
Accepted flit rate average= 0.0487917
	minimum = 0.0406667 (at node 12)
	maximum = 0.0566667 (at node 6)
Injected packet length average = 1
Accepted packet length average = 1
Total in-flight flits = 14 (14 measured)
latency change    = 0.0017289
throughput change = 0.0213493
Class 0:
Packet latency average = 19.917
	minimum = 7
	maximum = 55
Network latency average = 19.917
	minimum = 7
	maximum = 55
Slowest packet = 130006
Flit latency average = 19.9531
	minimum = 7
	maximum = 55
Slowest flit = 130006
Fragmentation average = 0
	minimum = 0
	maximum = 0
Injected packet rate average = 0.048875
	minimum = 0.0435 (at node 2)
	maximum = 0.0605 (at node 6)
Accepted packet rate average = 0.048625
	minimum = 0.0395 (at node 12)
	maximum = 0.054 (at node 14)
Injected flit rate average = 0.048875
	minimum = 0.0435 (at node 2)
	maximum = 0.0605 (at node 6)
Accepted flit rate average= 0.048625
	minimum = 0.0395 (at node 12)
	maximum = 0.054 (at node 14)
Injected packet length average = 1
Accepted packet length average = 1
Total in-flight flits = 21 (21 measured)
latency change    = 0.00702125
throughput change = 0.00342759
Draining all recorded packets ...
Draining remaining packets ...
Time taken is 3561 cycles
Class 0:
Packet latency average = 19.1506
	minimum = 7
	maximum = 40
Network latency average = 19.1506
	minimum = 7
	maximum = 40
Slowest packet = 130691
Flit latency average = 19.1506
	minimum = 7
	maximum = 40
Slowest flit = 130691
Fragmentation average = 0
	minimum = 0
	maximum = 0
Injected packet rate average = 0.04575
	minimum = 0.028 (at node 14)
	maximum = 0.058 (at node 2)
Accepted packet rate average = 0.044
	minimum = 0.034 (at node 6)
	maximum = 0.058 (at node 11)
Injected flit rate average = 0.04575
	minimum = 0.028 (at node 14)
	maximum = 0.058 (at node 2)
Accepted flit rate average= 0.044
	minimum = 0.034 (at node 6)
	maximum = 0.058 (at node 11)
Injected packet length average = 1
Accepted packet length average = 1
Total in-flight flits = 14 (0 measured)
latency change    = 1
throughput change = 1
Class 0:
Packet latency average = 19.5359
	minimum = 7
	maximum = 50
Network latency average = 19.5359
	minimum = 7
	maximum = 50
Slowest packet = 131251
Flit latency average = 19.5359
	minimum = 7
	maximum = 50
Slowest flit = 131251
Fragmentation average = 0
	minimum = 0
	maximum = 0
Injected packet rate average = 0.0501875
	minimum = 0.04 (at node 9)
	maximum = 0.06 (at node 11)
Accepted packet rate average = 0.04875
	minimum = 0.034 (at node 12)
	maximum = 0.059 (at node 8)
Injected flit rate average = 0.0501875
	minimum = 0.04 (at node 9)
	maximum = 0.06 (at node 11)
Accepted flit rate average= 0.04875
	minimum = 0.034 (at node 12)
	maximum = 0.059 (at node 8)
Injected packet length average = 1
Accepted packet length average = 1
Total in-flight flits = 23 (0 measured)
latency change    = 0.0197242
throughput change = 0.0974359
Class 0:
Packet latency average = 20.3019
	minimum = 7
	maximum = 47
Network latency average = 20.3019
	minimum = 7
	maximum = 47
Slowest packet = 131286
Flit latency average = 20.3019
	minimum = 7
	maximum = 47
Slowest flit = 131286
Fragmentation average = 0
	minimum = 0
	maximum = 0
Injected packet rate average = 0.050625
	minimum = 0.032 (at node 12)
	maximum = 0.074 (at node 0)
Accepted packet rate average = 0.05175
	minimum = 0.032 (at node 11)
	maximum = 0.07 (at node 5)
Injected flit rate average = 0.050625
	minimum = 0.032 (at node 12)
	maximum = 0.074 (at node 0)
Accepted flit rate average= 0.05175
	minimum = 0.032 (at node 11)
	maximum = 0.07 (at node 5)
Injected packet length average = 1
Accepted packet length average = 1
Total in-flight flits = 14 (0 measured)
latency change    = 0.0377321
throughput change = 0.057971
Warmed up ...Time used is 1500 cycles
Class 0:
Packet latency average = 20.0934
	minimum = 7
	maximum = 39
Network latency average = 20.0934
	minimum = 7
	maximum = 39
Slowest packet = 131761
Flit latency average = 20.209
	minimum = 7
	maximum = 39
Slowest flit = 131761
Fragmentation average = 0
	minimum = 0
	maximum = 0
Injected packet rate average = 0.047
	minimum = 0.032 (at node 1)
	maximum = 0.062 (at node 3)
Accepted packet rate average = 0.04725
	minimum = 0.034 (at node 14)
	maximum = 0.064 (at node 11)
Injected flit rate average = 0.047
	minimum = 0.032 (at node 1)
	maximum = 0.062 (at node 3)
Accepted flit rate average= 0.04725
	minimum = 0.034 (at node 14)
	maximum = 0.064 (at node 11)
Injected packet length average = 1
Accepted packet length average = 1
Total in-flight flits = 12 (12 measured)
latency change    = 0.0103778
throughput change = 0.0952381
Class 0:
Packet latency average = 20.3065
	minimum = 7
	maximum = 46
Network latency average = 20.3065
	minimum = 7
	maximum = 46
Slowest packet = 132251
Flit latency average = 20.3584
	minimum = 7
	maximum = 46
Slowest flit = 132251
Fragmentation average = 0
	minimum = 0
	maximum = 0
Injected packet rate average = 0.0496875
	minimum = 0.04 (at node 0)
	maximum = 0.06 (at node 3)
Accepted packet rate average = 0.049
	minimum = 0.037 (at node 0)
	maximum = 0.062 (at node 2)
Injected flit rate average = 0.0496875
	minimum = 0.04 (at node 0)
	maximum = 0.06 (at node 3)
Accepted flit rate average= 0.049
	minimum = 0.037 (at node 0)
	maximum = 0.062 (at node 2)
Injected packet length average = 1
Accepted packet length average = 1
Total in-flight flits = 25 (25 measured)
latency change    = 0.0104935
throughput change = 0.0357143
Class 0:
Packet latency average = 20.4648
	minimum = 7
	maximum = 49
Network latency average = 20.4648
	minimum = 7
	maximum = 49
Slowest packet = 132594
Flit latency average = 20.4971
	minimum = 7
	maximum = 49
Slowest flit = 132594
Fragmentation average = 0
	minimum = 0
	maximum = 0
Injected packet rate average = 0.0495
	minimum = 0.0433333 (at node 10)
	maximum = 0.0573333 (at node 3)
Accepted packet rate average = 0.0497083
	minimum = 0.0406667 (at node 8)
	maximum = 0.0566667 (at node 7)
Injected flit rate average = 0.0495
	minimum = 0.0433333 (at node 10)
	maximum = 0.0573333 (at node 3)
Accepted flit rate average= 0.0497083
	minimum = 0.0406667 (at node 8)
	maximum = 0.0566667 (at node 7)
Injected packet length average = 1
Accepted packet length average = 1
Total in-flight flits = 9 (9 measured)
latency change    = 0.00773558
throughput change = 0.0142498
Class 0:
Packet latency average = 20.361
	minimum = 7
	maximum = 53
Network latency average = 20.361
	minimum = 7
	maximum = 53
Slowest packet = 133141
Flit latency average = 20.3859
	minimum = 7
	maximum = 53
Slowest flit = 133141
Fragmentation average = 0
	minimum = 0
	maximum = 0
Injected packet rate average = 0.0503125
	minimum = 0.0445 (at node 4)
	maximum = 0.059 (at node 5)
Accepted packet rate average = 0.050125
	minimum = 0.043 (at node 8)
	maximum = 0.0565 (at node 7)
Injected flit rate average = 0.0503125
	minimum = 0.0445 (at node 4)
	maximum = 0.059 (at node 5)
Accepted flit rate average= 0.050125
	minimum = 0.043 (at node 8)
	maximum = 0.0565 (at node 7)
Injected packet length average = 1
Accepted packet length average = 1
Total in-flight flits = 20 (20 measured)
latency change    = 0.0050977
throughput change = 0.00831255
Draining all recorded packets ...
Draining remaining packets ...
Time taken is 3562 cycles
Class 0:
Packet latency average = 20.262
	minimum = 7
	maximum = 45
Network latency average = 20.262
	minimum = 7
	maximum = 45
Slowest packet = 133562
Flit latency average = 20.262
	minimum = 7
	maximum = 45
Slowest flit = 133562
Fragmentation average = 0
	minimum = 0
	maximum = 0
Injected packet rate average = 0.049125
	minimum = 0.024 (at node 1)
	maximum = 0.074 (at node 0)
Accepted packet rate average = 0.04675
	minimum = 0.028 (at node 3)
	maximum = 0.06 (at node 6)
Injected flit rate average = 0.049125
	minimum = 0.024 (at node 1)
	maximum = 0.074 (at node 0)
Accepted flit rate average= 0.04675
	minimum = 0.028 (at node 3)
	maximum = 0.06 (at node 6)
Injected packet length average = 1
Accepted packet length average = 1
Total in-flight flits = 19 (0 measured)
latency change    = 1
throughput change = 1
Class 0:
Packet latency average = 20.4994
	minimum = 7
	maximum = 51
Network latency average = 20.4994
	minimum = 7
	maximum = 51
Slowest packet = 133973
Flit latency average = 20.4994
	minimum = 7
	maximum = 51
Slowest flit = 133973
Fragmentation average = 0
	minimum = 0
	maximum = 0
Injected packet rate average = 0.04975
	minimum = 0.038 (at node 4)
	maximum = 0.064 (at node 14)
Accepted packet rate average = 0.0484375
	minimum = 0.038 (at node 3)
	maximum = 0.056 (at node 15)
Injected flit rate average = 0.04975
	minimum = 0.038 (at node 4)
	maximum = 0.064 (at node 14)
Accepted flit rate average= 0.0484375
	minimum = 0.038 (at node 3)
	maximum = 0.056 (at node 15)
Injected packet length average = 1
Accepted packet length average = 1
Total in-flight flits = 21 (0 measured)
latency change    = 0.0115771
throughput change = 0.0348387
Class 0:
Packet latency average = 20.7397
	minimum = 7
	maximum = 49
Network latency average = 20.7397
	minimum = 7
	maximum = 49
Slowest packet = 134405
Flit latency average = 20.7397
	minimum = 7
	maximum = 49
Slowest flit = 134405
Fragmentation average = 0
	minimum = 0
	maximum = 0
Injected packet rate average = 0.050375
	minimum = 0.038 (at node 14)
	maximum = 0.062 (at node 4)
Accepted packet rate average = 0.051375
	minimum = 0.032 (at node 13)
	maximum = 0.08 (at node 10)
Injected flit rate average = 0.050375
	minimum = 0.038 (at node 14)
	maximum = 0.062 (at node 4)
Accepted flit rate average= 0.051375
	minimum = 0.032 (at node 13)
	maximum = 0.08 (at node 10)
Injected packet length average = 1
Accepted packet length average = 1
Total in-flight flits = 13 (0 measured)
latency change    = 0.0115867
throughput change = 0.0571776
Warmed up ...Time used is 1500 cycles
Class 0:
Packet latency average = 20.4866
	minimum = 7
	maximum = 38
Network latency average = 20.4866
	minimum = 7
	maximum = 38
Slowest packet = 134713
Flit latency average = 20.6718
	minimum = 7
	maximum = 38
Slowest flit = 134539
Fragmentation average = 0
	minimum = 0
	maximum = 0
Injected packet rate average = 0.048375
	minimum = 0.032 (at node 8)
	maximum = 0.064 (at node 12)
Accepted packet rate average = 0.048375
	minimum = 0.034 (at node 2)
	maximum = 0.074 (at node 11)
Injected flit rate average = 0.048375
	minimum = 0.032 (at node 8)
	maximum = 0.064 (at node 12)
Accepted flit rate average= 0.048375
	minimum = 0.034 (at node 2)
	maximum = 0.074 (at node 11)
Injected packet length average = 1
Accepted packet length average = 1
Total in-flight flits = 13 (13 measured)
latency change    = 0.0123509
throughput change = 0.0620155
Class 0:
Packet latency average = 20.2702
	minimum = 7
	maximum = 44
Network latency average = 20.2702
	minimum = 7
	maximum = 44
Slowest packet = 135212
Flit latency average = 20.3686
	minimum = 7
	maximum = 44
Slowest flit = 135212
Fragmentation average = 0
	minimum = 0
	maximum = 0
Injected packet rate average = 0.047625
	minimum = 0.036 (at node 8)
	maximum = 0.059 (at node 13)
Accepted packet rate average = 0.0473125
	minimum = 0.034 (at node 6)
	maximum = 0.061 (at node 5)
Injected flit rate average = 0.047625
	minimum = 0.036 (at node 8)
	maximum = 0.059 (at node 13)
Accepted flit rate average= 0.0473125
	minimum = 0.034 (at node 6)
	maximum = 0.061 (at node 5)
Injected packet length average = 1
Accepted packet length average = 1
Total in-flight flits = 18 (18 measured)
latency change    = 0.0106792
throughput change = 0.0224571
Class 0:
Packet latency average = 20.0929
	minimum = 7
	maximum = 44
Network latency average = 20.0929
	minimum = 7
	maximum = 44
Slowest packet = 135212
Flit latency average = 20.1582
	minimum = 7
	maximum = 44
Slowest flit = 135212
Fragmentation average = 0
	minimum = 0
	maximum = 0
Injected packet rate average = 0.049
	minimum = 0.0426667 (at node 5)
	maximum = 0.058 (at node 12)
Accepted packet rate average = 0.049
	minimum = 0.0426667 (at node 6)
	maximum = 0.058 (at node 5)
Injected flit rate average = 0.049
	minimum = 0.0426667 (at node 5)
	maximum = 0.058 (at node 12)
Accepted flit rate average= 0.049
	minimum = 0.0426667 (at node 6)
	maximum = 0.058 (at node 5)
Injected packet length average = 1
Accepted packet length average = 1
Total in-flight flits = 13 (13 measured)
latency change    = 0.00882393
throughput change = 0.0344388
Class 0:
Packet latency average = 20.046
	minimum = 7
	maximum = 44
Network latency average = 20.046
	minimum = 7
	maximum = 44
Slowest packet = 135212
Flit latency average = 20.0958
	minimum = 7
	maximum = 44
Slowest flit = 135212
Fragmentation average = 0
	minimum = 0
	maximum = 0
Injected packet rate average = 0.0485
	minimum = 0.043 (at node 8)
	maximum = 0.055 (at node 12)
Accepted packet rate average = 0.0485937
	minimum = 0.0425 (at node 2)
	maximum = 0.0595 (at node 5)
Injected flit rate average = 0.0485
	minimum = 0.043 (at node 8)
	maximum = 0.055 (at node 12)
Accepted flit rate average= 0.0485937
	minimum = 0.0425 (at node 2)
	maximum = 0.0595 (at node 5)
Injected packet length average = 1
Accepted packet length average = 1
Total in-flight flits = 10 (10 measured)
latency change    = 0.00233558
throughput change = 0.00836013
Draining all recorded packets ...
Draining remaining packets ...
Time taken is 3554 cycles
====== Overall Traffic Statistics ======
====== Traffic class 0 ======
Packet latency average = 20.3253 (50 samples)
	minimum = 7 (50 samples)
	maximum = 54.82 (50 samples)
Network latency average = 20.3241 (50 samples)
	minimum = 7 (50 samples)
	maximum = 54.82 (50 samples)
Flit latency average = 20.3561 (50 samples)
	minimum = 7 (50 samples)
	maximum = 54.92 (50 samples)
Fragmentation average = 0 (50 samples)
	minimum = 0 (50 samples)
	maximum = 0 (50 samples)
Injected packet rate average = 0.0501882 (50 samples)
	minimum = 0.0410407 (50 samples)
	maximum = 0.0594013 (50 samples)
Accepted packet rate average = 0.0501911 (50 samples)
	minimum = 0.0411673 (50 samples)
	maximum = 0.0602993 (50 samples)
Injected flit rate average = 0.0501882 (50 samples)
	minimum = 0.0410407 (50 samples)
	maximum = 0.0594013 (50 samples)
Accepted flit rate average = 0.0501911 (50 samples)
	minimum = 0.0411673 (50 samples)
	maximum = 0.0602993 (50 samples)
Injected packet size average = 1 (50 samples)
Accepted packet size average = 1 (50 samples)
Hops average = 3.50066 (50 samples)
Total run time 2.04883
