BEGIN Configuration File: /tmp/tmpxhzb1zge.cfg
topology = mesh;
k = 4;
n = 2;
routing_function = gnn_port_score_route_4x4_v4;
num_vcs = 4;
vc_buf_size = 4;
wait_for_tail_credit = 1;
vc_allocator = islip;
sw_allocator = islip;
alloc_iters = 1;
credit_delay = 2;
routing_delay = 1;
vc_alloc_delay = 1;
sw_alloc_delay = 1;
input_speedup = 2;
output_speedup = 1;
internal_speedup = 1.0;
traffic = hotspot;
packet_size = 1;
sim_type = latency;
injection_rate = 0.01;
warmup_periods = 3;
sample_period = 500;
sim_count = 50;
seed = 0;
link_failures = 0;
fail_seed = 101;

END Configuration File: /tmp/tmpxhzb1zge.cfg
Class 0:
Packet latency average = 20.3457
	minimum = 7
	maximum = 34
Network latency average = 20.3457
	minimum = 7
	maximum = 34
Slowest packet = 61
Flit latency average = 20.3457
	minimum = 7
	maximum = 34
Slowest flit = 61
Fragmentation average = 0
	minimum = 0
	maximum = 0
Injected packet rate average = 0.010375
	minimum = 0.004 (at node 5)
	maximum = 0.016 (at node 9)
Accepted packet rate average = 0.010125
	minimum = 0 (at node 0)
	maximum = 0.162 (at node 11)
Injected flit rate average = 0.010375
	minimum = 0.004 (at node 5)
	maximum = 0.016 (at node 9)
Accepted flit rate average= 0.010125
	minimum = 0 (at node 0)
	maximum = 0.162 (at node 11)
Injected packet length average = 1
Accepted packet length average = 1
Total in-flight flits = 2 (0 measured)
latency change    = 1
throughput change = 1
Class 0:
Packet latency average = 20.7974
	minimum = 7
	maximum = 38
Network latency average = 20.7974
	minimum = 7
	maximum = 38
Slowest packet = 98
Flit latency average = 20.7974
	minimum = 7
	maximum = 38
Slowest flit = 98
Fragmentation average = 0
	minimum = 0
	maximum = 0
Injected packet rate average = 0.00975
	minimum = 0.004 (at node 11)
	maximum = 0.014 (at node 13)
Accepted packet rate average = 0.0095625
	minimum = 0 (at node 0)
	maximum = 0.153 (at node 11)
Injected flit rate average = 0.00975
	minimum = 0.004 (at node 11)
	maximum = 0.014 (at node 13)
Accepted flit rate average= 0.0095625
	minimum = 0 (at node 0)
	maximum = 0.153 (at node 11)
Injected packet length average = 1
Accepted packet length average = 1
Total in-flight flits = 3 (0 measured)
latency change    = 0.0217194
throughput change = 0.0588235
Class 0:
Packet latency average = 20.0986
	minimum = 7
	maximum = 37
Network latency average = 20.0986
	minimum = 7
	maximum = 37
Slowest packet = 207
Flit latency average = 20.0986
	minimum = 7
	maximum = 37
Slowest flit = 207
Fragmentation average = 0
	minimum = 0
	maximum = 0
Injected packet rate average = 0.00925
	minimum = 0.002 (at node 11)
	maximum = 0.016 (at node 10)
Accepted packet rate average = 0.008875
	minimum = 0 (at node 0)
	maximum = 0.142 (at node 11)
Injected flit rate average = 0.00925
	minimum = 0.002 (at node 11)
	maximum = 0.016 (at node 10)
Accepted flit rate average= 0.008875
	minimum = 0 (at node 0)
	maximum = 0.142 (at node 11)
Injected packet length average = 1
Accepted packet length average = 1
Total in-flight flits = 6 (0 measured)
latency change    = 0.0347683
throughput change = 0.0774648
Warmed up ...Time used is 1500 cycles
Class 0:
Packet latency average = 21.76
	minimum = 7
	maximum = 38
Network latency average = 21.76
	minimum = 7
	maximum = 38
Slowest packet = 283
Flit latency average = 22.1235
	minimum = 7
	maximum = 38
Slowest flit = 283
Fragmentation average = 0
	minimum = 0
	maximum = 0
Injected packet rate average = 0.00975
	minimum = 0.004 (at node 3)
	maximum = 0.018 (at node 8)
Accepted packet rate average = 0.010125
	minimum = 0 (at node 0)
	maximum = 0.162 (at node 11)
Injected flit rate average = 0.00975
	minimum = 0.004 (at node 3)
	maximum = 0.018 (at node 8)
Accepted flit rate average= 0.010125
	minimum = 0 (at node 0)
	maximum = 0.162 (at node 11)
Injected packet length average = 1
Accepted packet length average = 1
Total in-flight flits = 3 (3 measured)
latency change    = 0.0763515
throughput change = 0.123457
Class 0:
Packet latency average = 20.9412
	minimum = 7
	maximum = 40
Network latency average = 20.9412
	minimum = 7
	maximum = 40
Slowest packet = 340
Flit latency average = 21.1572
	minimum = 7
	maximum = 40
Slowest flit = 340
Fragmentation average = 0
	minimum = 0
	maximum = 0
Injected packet rate average = 0.0096875
	minimum = 0.005 (at node 7)
	maximum = 0.016 (at node 13)
Accepted packet rate average = 0.0099375
	minimum = 0 (at node 0)
	maximum = 0.159 (at node 11)
Injected flit rate average = 0.0096875
	minimum = 0.005 (at node 7)
	maximum = 0.016 (at node 13)
Accepted flit rate average= 0.0099375
	minimum = 0 (at node 0)
	maximum = 0.159 (at node 11)
Injected packet length average = 1
Accepted packet length average = 1
Total in-flight flits = 2 (2 measured)
latency change    = 0.0391011
throughput change = 0.0188679
Class 0:
Packet latency average = 20.4916
	minimum = 7
	maximum = 43
Network latency average = 20.4916
	minimum = 7
	maximum = 43
Slowest packet = 436
Flit latency average = 20.6434
	minimum = 7
	maximum = 43
Slowest flit = 436
Fragmentation average = 0
	minimum = 0
	maximum = 0
Injected packet rate average = 0.00991667
	minimum = 0.00733333 (at node 7)
	maximum = 0.0133333 (at node 13)
Accepted packet rate average = 0.0101667
	minimum = 0 (at node 0)
	maximum = 0.162667 (at node 11)
Injected flit rate average = 0.00991667
	minimum = 0.00733333 (at node 7)
	maximum = 0.0133333 (at node 13)
Accepted flit rate average= 0.0101667
	minimum = 0 (at node 0)
	maximum = 0.162667 (at node 11)
Injected packet length average = 1
Accepted packet length average = 1
Total in-flight flits = 0 (0 measured)
latency change    = 0.0219397
throughput change = 0.022541
Class 0:
Packet latency average = 20.6115
	minimum = 7
	maximum = 43
Network latency average = 20.6115
	minimum = 7
	maximum = 43
Slowest packet = 436
Flit latency average = 20.725
	minimum = 7
	maximum = 43
Slowest flit = 436
Fragmentation average = 0
	minimum = 0
	maximum = 0
Injected packet rate average = 0.00990625
	minimum = 0.0075 (at node 1)
	maximum = 0.013 (at node 8)
Accepted packet rate average = 0.01
	minimum = 0 (at node 0)
	maximum = 0.16 (at node 11)
Injected flit rate average = 0.00990625
	minimum = 0.0075 (at node 1)
	maximum = 0.013 (at node 8)
Accepted flit rate average= 0.01
	minimum = 0 (at node 0)
	maximum = 0.16 (at node 11)
Injected packet length average = 1
Accepted packet length average = 1
Total in-flight flits = 3 (3 measured)
latency change    = 0.00581561
throughput change = 0.0166667
Draining all recorded packets ...
Draining remaining packets ...
Time taken is 3539 cycles
Class 0:
Packet latency average = 18.4286
	minimum = 7
	maximum = 33
Network latency average = 18.4286
	minimum = 7
	maximum = 33
Slowest packet = 596
Flit latency average = 18.4286
	minimum = 7
	maximum = 33
Slowest flit = 596
Fragmentation average = 0
	minimum = 0
	maximum = 0
Injected packet rate average = 0.00825
	minimum = 0.004 (at node 5)
	maximum = 0.016 (at node 11)
Accepted packet rate average = 0.007875
	minimum = 0 (at node 0)
	maximum = 0.126 (at node 11)
Injected flit rate average = 0.00825
	minimum = 0.004 (at node 5)
	maximum = 0.016 (at node 11)
Accepted flit rate average= 0.007875
	minimum = 0 (at node 0)
	maximum = 0.126 (at node 11)
Injected packet length average = 1
Accepted packet length average = 1
Total in-flight flits = 3 (0 measured)
latency change    = 1
throughput change = 1
Class 0:
Packet latency average = 19.1799
	minimum = 7
	maximum = 35
Network latency average = 19.1799
	minimum = 7
	maximum = 35
Slowest packet = 658
Flit latency average = 19.1799
	minimum = 7
	maximum = 35
Slowest flit = 658
Fragmentation average = 0
	minimum = 0
	maximum = 0
Injected packet rate average = 0.0088125
	minimum = 0.006 (at node 8)
	maximum = 0.016 (at node 10)
Accepted packet rate average = 0.0086875
	minimum = 0 (at node 0)
	maximum = 0.139 (at node 11)
Injected flit rate average = 0.0088125
	minimum = 0.006 (at node 8)
	maximum = 0.016 (at node 10)
Accepted flit rate average= 0.0086875
	minimum = 0 (at node 0)
	maximum = 0.139 (at node 11)
Injected packet length average = 1
Accepted packet length average = 1
Total in-flight flits = 2 (0 measured)
latency change    = 0.0391705
throughput change = 0.0935252
Class 0:
Packet latency average = 20.8551
	minimum = 7
	maximum = 45
Network latency average = 20.8551
	minimum = 7
	maximum = 45
Slowest packet = 726
Flit latency average = 20.8551
	minimum = 7
	maximum = 45
Slowest flit = 726
Fragmentation average = 0
	minimum = 0
	maximum = 0
Injected packet rate average = 0.00875
	minimum = 0.004 (at node 9)
	maximum = 0.016 (at node 6)
Accepted packet rate average = 0.008625
	minimum = 0 (at node 0)
	maximum = 0.138 (at node 11)
Injected flit rate average = 0.00875
	minimum = 0.004 (at node 9)
	maximum = 0.016 (at node 6)
Accepted flit rate average= 0.008625
	minimum = 0 (at node 0)
	maximum = 0.138 (at node 11)
Injected packet length average = 1
Accepted packet length average = 1
Total in-flight flits = 3 (0 measured)
latency change    = 0.0803266
throughput change = 0.00724638
Warmed up ...Time used is 1500 cycles
Class 0:
Packet latency average = 20.2963
	minimum = 7
	maximum = 47
Network latency average = 20.2963
	minimum = 7
	maximum = 47
Slowest packet = 834
Flit latency average = 20.5357
	minimum = 7
	maximum = 47
Slowest flit = 834
Fragmentation average = 0
	minimum = 0
	maximum = 0
Injected packet rate average = 0.01075
	minimum = 0.002 (at node 2)
	maximum = 0.02 (at node 15)
Accepted packet rate average = 0.0105
	minimum = 0 (at node 0)
	maximum = 0.168 (at node 11)
Injected flit rate average = 0.01075
	minimum = 0.002 (at node 2)
	maximum = 0.02 (at node 15)
Accepted flit rate average= 0.0105
	minimum = 0 (at node 0)
	maximum = 0.168 (at node 11)
Injected packet length average = 1
Accepted packet length average = 1
Total in-flight flits = 5 (5 measured)
latency change    = 0.0275309
throughput change = 0.178571
Class 0:
Packet latency average = 20.5098
	minimum = 7
	maximum = 47
Network latency average = 20.5098
	minimum = 7
	maximum = 47
Slowest packet = 834
Flit latency average = 20.6346
	minimum = 7
	maximum = 47
Slowest flit = 834
Fragmentation average = 0
	minimum = 0
	maximum = 0
Injected packet rate average = 0.01
	minimum = 0.006 (at node 2)
	maximum = 0.016 (at node 3)
Accepted packet rate average = 0.00975
	minimum = 0 (at node 0)
	maximum = 0.156 (at node 11)
Injected flit rate average = 0.01
	minimum = 0.006 (at node 2)
	maximum = 0.016 (at node 3)
Accepted flit rate average= 0.00975
	minimum = 0 (at node 0)
	maximum = 0.156 (at node 11)
Injected packet length average = 1
Accepted packet length average = 1
Total in-flight flits = 7 (7 measured)
latency change    = 0.01041
throughput change = 0.0769231
Class 0:
Packet latency average = 21.0292
	minimum = 7
	maximum = 47
Network latency average = 21.0292
	minimum = 7
	maximum = 47
Slowest packet = 834
Flit latency average = 21.1029
	minimum = 7
	maximum = 47
Slowest flit = 834
Fragmentation average = 0
	minimum = 0
	maximum = 0
Injected packet rate average = 0.01025
	minimum = 0.006 (at node 10)
	maximum = 0.0173333 (at node 3)
Accepted packet rate average = 0.010125
	minimum = 0 (at node 0)
	maximum = 0.162 (at node 11)
Injected flit rate average = 0.01025
	minimum = 0.006 (at node 10)
	maximum = 0.0173333 (at node 3)
Accepted flit rate average= 0.010125
	minimum = 0 (at node 0)
	maximum = 0.162 (at node 11)
Injected packet length average = 1
Accepted packet length average = 1
Total in-flight flits = 6 (6 measured)
latency change    = 0.0246973
throughput change = 0.037037
Class 0:
Packet latency average = 20.8864
	minimum = 7
	maximum = 57
Network latency average = 20.8864
	minimum = 7
	maximum = 57
Slowest packet = 1009
Flit latency average = 20.9438
	minimum = 7
	maximum = 57
Slowest flit = 1009
Fragmentation average = 0
	minimum = 0
	maximum = 0
Injected packet rate average = 0.00996875
	minimum = 0.0055 (at node 2)
	maximum = 0.0155 (at node 3)
Accepted packet rate average = 0.01
	minimum = 0 (at node 0)
	maximum = 0.16 (at node 11)
Injected flit rate average = 0.00996875
	minimum = 0.0055 (at node 2)
	maximum = 0.0155 (at node 3)
Accepted flit rate average= 0.01
	minimum = 0 (at node 0)
	maximum = 0.16 (at node 11)
Injected packet length average = 1
Accepted packet length average = 1
Total in-flight flits = 2 (2 measured)
latency change    = 0.00683369
throughput change = 0.0125
Class 0:
Packet latency average = 20.6373
	minimum = 7
	maximum = 57
Network latency average = 20.6373
	minimum = 7
	maximum = 57
Slowest packet = 1009
Flit latency average = 20.685
	minimum = 7
	maximum = 57
Slowest flit = 1009
Fragmentation average = 0
	minimum = 0
	maximum = 0
Injected packet rate average = 0.01
	minimum = 0.0068 (at node 2)
	maximum = 0.0156 (at node 13)
Accepted packet rate average = 0.01
	minimum = 0 (at node 0)
	maximum = 0.16 (at node 11)
Injected flit rate average = 0.01
	minimum = 0.0068 (at node 2)
	maximum = 0.0156 (at node 13)
Accepted flit rate average= 0.01
	minimum = 0 (at node 0)
	maximum = 0.16 (at node 11)
Injected packet length average = 1
Accepted packet length average = 1
Total in-flight flits = 3 (3 measured)
latency change    = 0.0120731
throughput change = 0
Draining all recorded packets ...
Draining remaining packets ...
Time taken is 4027 cycles
Class 0:
Packet latency average = 20.5
	minimum = 7
	maximum = 41
Network latency average = 20.5
	minimum = 7
	maximum = 41
Slowest packet = 1240
Flit latency average = 20.5
	minimum = 7
	maximum = 41
Slowest flit = 1240
Fragmentation average = 0
	minimum = 0
	maximum = 0
Injected packet rate average = 0.01175
	minimum = 0.006 (at node 5)
	maximum = 0.02 (at node 1)
Accepted packet rate average = 0.01125
	minimum = 0 (at node 0)
	maximum = 0.18 (at node 11)
Injected flit rate average = 0.01175
	minimum = 0.006 (at node 5)
	maximum = 0.02 (at node 1)
Accepted flit rate average= 0.01125
	minimum = 0 (at node 0)
	maximum = 0.18 (at node 11)
Injected packet length average = 1
Accepted packet length average = 1
Total in-flight flits = 4 (0 measured)
latency change    = 1
throughput change = 1
Class 0:
Packet latency average = 20.6117
	minimum = 7
	maximum = 41
Network latency average = 20.6117
	minimum = 7
	maximum = 41
Slowest packet = 1240
Flit latency average = 20.6117
	minimum = 7
	maximum = 41
Slowest flit = 1240
Fragmentation average = 0
	minimum = 0
	maximum = 0
Injected packet rate average = 0.012
	minimum = 0.007 (at node 8)
	maximum = 0.017 (at node 1)
Accepted packet rate average = 0.01175
	minimum = 0 (at node 0)
	maximum = 0.188 (at node 11)
Injected flit rate average = 0.012
	minimum = 0.007 (at node 8)
	maximum = 0.017 (at node 1)
Accepted flit rate average= 0.01175
	minimum = 0 (at node 0)
	maximum = 0.188 (at node 11)
Injected packet length average = 1
Accepted packet length average = 1
Total in-flight flits = 4 (0 measured)
latency change    = 0.00541935
throughput change = 0.0425532
Class 0:
Packet latency average = 20.5604
	minimum = 7
	maximum = 36
Network latency average = 20.5604
	minimum = 7
	maximum = 36
Slowest packet = 1371
Flit latency average = 20.5604
	minimum = 7
	maximum = 36
Slowest flit = 1371
Fragmentation average = 0
	minimum = 0
	maximum = 0
Injected packet rate average = 0.011375
	minimum = 0.006 (at node 5)
	maximum = 0.016 (at node 1)
Accepted packet rate average = 0.011375
	minimum = 0 (at node 0)
	maximum = 0.182 (at node 11)
Injected flit rate average = 0.011375
	minimum = 0.006 (at node 5)
	maximum = 0.016 (at node 1)
Accepted flit rate average= 0.011375
	minimum = 0 (at node 0)
	maximum = 0.182 (at node 11)
Injected packet length average = 1
Accepted packet length average = 1
Total in-flight flits = 4 (0 measured)
latency change    = 0.00249326
throughput change = 0.032967
Warmed up ...Time used is 1500 cycles
Class 0:
Packet latency average = 18.7778
	minimum = 7
	maximum = 32
Network latency average = 18.7778
	minimum = 7
	maximum = 32
Slowest packet = 1459
Flit latency average = 19.0658
	minimum = 7
	maximum = 32
Slowest flit = 1440
Fragmentation average = 0
	minimum = 0
	maximum = 0
Injected packet rate average = 0.0095
	minimum = 0.002 (at node 5)
	maximum = 0.02 (at node 7)
Accepted packet rate average = 0.0095
	minimum = 0 (at node 0)
	maximum = 0.152 (at node 11)
Injected flit rate average = 0.0095
	minimum = 0.002 (at node 5)
	maximum = 0.02 (at node 7)
Accepted flit rate average= 0.0095
	minimum = 0 (at node 0)
	maximum = 0.152 (at node 11)
Injected packet length average = 1
Accepted packet length average = 1
Total in-flight flits = 4 (4 measured)
latency change    = 0.0949347
throughput change = 0.197368
Class 0:
Packet latency average = 19.5324
	minimum = 7
	maximum = 32
Network latency average = 19.5324
	minimum = 7
	maximum = 32
Slowest packet = 1459
Flit latency average = 19.6643
	minimum = 7
	maximum = 32
Slowest flit = 1440
Fragmentation average = 0
	minimum = 0
	maximum = 0
Injected packet rate average = 0.008875
	minimum = 0.004 (at node 2)
	maximum = 0.014 (at node 3)
Accepted packet rate average = 0.0089375
	minimum = 0 (at node 0)
	maximum = 0.143 (at node 11)
Injected flit rate average = 0.008875
	minimum = 0.004 (at node 2)
	maximum = 0.014 (at node 3)
Accepted flit rate average= 0.0089375
	minimum = 0 (at node 0)
	maximum = 0.143 (at node 11)
Injected packet length average = 1
Accepted packet length average = 1
Total in-flight flits = 3 (3 measured)
latency change    = 0.0386331
throughput change = 0.0629371
Class 0:
Packet latency average = 19.8287
	minimum = 7
	maximum = 34
Network latency average = 19.8287
	minimum = 7
	maximum = 34
Slowest packet = 1626
Flit latency average = 19.9091
	minimum = 7
	maximum = 34
Slowest flit = 1626
Fragmentation average = 0
	minimum = 0
	maximum = 0
Injected packet rate average = 0.009125
	minimum = 0.00333333 (at node 2)
	maximum = 0.012 (at node 1)
Accepted packet rate average = 0.00916667
	minimum = 0 (at node 0)
	maximum = 0.146667 (at node 11)
Injected flit rate average = 0.009125
	minimum = 0.00333333 (at node 2)
	maximum = 0.012 (at node 1)
Accepted flit rate average= 0.00916667
	minimum = 0 (at node 0)
	maximum = 0.146667 (at node 11)
Injected packet length average = 1
Accepted packet length average = 1
Total in-flight flits = 3 (3 measured)
latency change    = 0.0149445
throughput change = 0.025
Class 0:
Packet latency average = 19.9565
	minimum = 7
	maximum = 37
Network latency average = 19.9565
	minimum = 7
	maximum = 37
Slowest packet = 1700
Flit latency average = 20.0132
	minimum = 7
	maximum = 37
Slowest flit = 1700
Fragmentation average = 0
	minimum = 0
	maximum = 0
Injected packet rate average = 0.00940625
	minimum = 0.005 (at node 2)
	maximum = 0.013 (at node 1)
Accepted packet rate average = 0.00946875
	minimum = 0 (at node 0)
	maximum = 0.1515 (at node 11)
Injected flit rate average = 0.00940625
	minimum = 0.005 (at node 2)
	maximum = 0.013 (at node 1)
Accepted flit rate average= 0.00946875
	minimum = 0 (at node 0)
	maximum = 0.1515 (at node 11)
Injected packet length average = 1
Accepted packet length average = 1
Total in-flight flits = 2 (2 measured)
latency change    = 0.00640483
throughput change = 0.0319032
Class 0:
Packet latency average = 19.9591
	minimum = 7
	maximum = 37
Network latency average = 19.9591
	minimum = 7
	maximum = 37
Slowest packet = 1700
Flit latency average = 20.0025
	minimum = 7
	maximum = 37
Slowest flit = 1700
Fragmentation average = 0
	minimum = 0
	maximum = 0
Injected packet rate average = 0.009775
	minimum = 0.0072 (at node 6)
	maximum = 0.0124 (at node 1)
Accepted packet rate average = 0.009875
	minimum = 0 (at node 0)
	maximum = 0.158 (at node 11)
Injected flit rate average = 0.009775
	minimum = 0.0072 (at node 6)
	maximum = 0.0124 (at node 1)
Accepted flit rate average= 0.009875
	minimum = 0 (at node 0)
	maximum = 0.158 (at node 11)
Injected packet length average = 1
Accepted packet length average = 1
Total in-flight flits = 0 (0 measured)
latency change    = 0.000128139
throughput change = 0.0411392
Draining all recorded packets ...
Draining remaining packets ...
Time taken is 4001 cycles
Class 0:
Packet latency average = 20.4675
	minimum = 7
	maximum = 33
Network latency average = 20.4675
	minimum = 7
	maximum = 33
Slowest packet = 1874
Flit latency average = 20.4675
	minimum = 7
	maximum = 33
Slowest flit = 1874
Fragmentation average = 0
	minimum = 0
	maximum = 0
Injected packet rate average = 0.01025
	minimum = 0.004 (at node 6)
	maximum = 0.018 (at node 7)
Accepted packet rate average = 0.009625
	minimum = 0 (at node 0)
	maximum = 0.154 (at node 11)
Injected flit rate average = 0.01025
	minimum = 0.004 (at node 6)
	maximum = 0.018 (at node 7)
Accepted flit rate average= 0.009625
	minimum = 0 (at node 0)
	maximum = 0.154 (at node 11)
Injected packet length average = 1
Accepted packet length average = 1
Total in-flight flits = 5 (0 measured)
latency change    = 1
throughput change = 1
Class 0:
Packet latency average = 20.6303
	minimum = 7
	maximum = 44
Network latency average = 20.6303
	minimum = 7
	maximum = 44
Slowest packet = 1992
Flit latency average = 20.6303
	minimum = 7
	maximum = 44
Slowest flit = 1992
Fragmentation average = 0
	minimum = 0
	maximum = 0
Injected packet rate average = 0.0105625
	minimum = 0.006 (at node 9)
	maximum = 0.018 (at node 7)
Accepted packet rate average = 0.0103125
	minimum = 0 (at node 0)
	maximum = 0.165 (at node 11)
Injected flit rate average = 0.0105625
	minimum = 0.006 (at node 9)
	maximum = 0.018 (at node 7)
Accepted flit rate average= 0.0103125
	minimum = 0 (at node 0)
	maximum = 0.165 (at node 11)
Injected packet length average = 1
Accepted packet length average = 1
Total in-flight flits = 4 (0 measured)
latency change    = 0.00788988
throughput change = 0.0666667
Class 0:
Packet latency average = 20.038
	minimum = 7
	maximum = 46
Network latency average = 20.038
	minimum = 7
	maximum = 46
Slowest packet = 2033
Flit latency average = 20.038
	minimum = 7
	maximum = 46
Slowest flit = 2033
Fragmentation average = 0
	minimum = 0
	maximum = 0
Injected packet rate average = 0.01
	minimum = 0.008 (at node 0)
	maximum = 0.016 (at node 13)
Accepted packet rate average = 0.009875
	minimum = 0 (at node 0)
	maximum = 0.158 (at node 11)
Injected flit rate average = 0.01
	minimum = 0.008 (at node 0)
	maximum = 0.016 (at node 13)
Accepted flit rate average= 0.009875
	minimum = 0 (at node 0)
	maximum = 0.158 (at node 11)
Injected packet length average = 1
Accepted packet length average = 1
Total in-flight flits = 5 (0 measured)
latency change    = 0.0295603
throughput change = 0.0443038
Warmed up ...Time used is 1500 cycles
Class 0:
Packet latency average = 20.3
	minimum = 7
	maximum = 34
Network latency average = 20.3
	minimum = 7
	maximum = 34
Slowest packet = 2143
Flit latency average = 20.4824
	minimum = 7
	maximum = 34
Slowest flit = 2143
Fragmentation average = 0
	minimum = 0
	maximum = 0
Injected packet rate average = 0.011
	minimum = 0 (at node 14)
	maximum = 0.02 (at node 10)
Accepted packet rate average = 0.010625
	minimum = 0 (at node 0)
	maximum = 0.17 (at node 11)
Injected flit rate average = 0.011
	minimum = 0 (at node 14)
	maximum = 0.02 (at node 10)
Accepted flit rate average= 0.010625
	minimum = 0 (at node 0)
	maximum = 0.17 (at node 11)
Injected packet length average = 1
Accepted packet length average = 1
Total in-flight flits = 8 (8 measured)
latency change    = 0.0129077
throughput change = 0.0705882
Class 0:
Packet latency average = 19.871
	minimum = 7
	maximum = 39
Network latency average = 19.871
	minimum = 7
	maximum = 39
Slowest packet = 2166
Flit latency average = 19.9812
	minimum = 7
	maximum = 39
Slowest flit = 2166
Fragmentation average = 0
	minimum = 0
	maximum = 0
Injected packet rate average = 0.0099375
	minimum = 0.005 (at node 14)
	maximum = 0.014 (at node 6)
Accepted packet rate average = 0.01
	minimum = 0 (at node 0)
	maximum = 0.16 (at node 11)
Injected flit rate average = 0.0099375
	minimum = 0.005 (at node 14)
	maximum = 0.014 (at node 6)
Accepted flit rate average= 0.01
	minimum = 0 (at node 0)
	maximum = 0.16 (at node 11)
Injected packet length average = 1
Accepted packet length average = 1
Total in-flight flits = 4 (4 measured)
latency change    = 0.0215909
throughput change = 0.0625
Class 0:
Packet latency average = 20.4255
	minimum = 7
	maximum = 41
Network latency average = 20.4255
	minimum = 7
	maximum = 41
Slowest packet = 2265
Flit latency average = 20.4875
	minimum = 7
	maximum = 41
Slowest flit = 2265
Fragmentation average = 0
	minimum = 0
	maximum = 0
Injected packet rate average = 0.00983333
	minimum = 0.00533333 (at node 14)
	maximum = 0.014 (at node 10)
Accepted packet rate average = 0.01
	minimum = 0 (at node 0)
	maximum = 0.16 (at node 11)
Injected flit rate average = 0.00983333
	minimum = 0.00533333 (at node 14)
	maximum = 0.014 (at node 10)
Accepted flit rate average= 0.01
	minimum = 0 (at node 0)
	maximum = 0.16 (at node 11)
Injected packet length average = 1
Accepted packet length average = 1
Total in-flight flits = 1 (1 measured)
latency change    = 0.0271505
throughput change = 0
Class 0:
Packet latency average = 20.0594
	minimum = 7
	maximum = 41
Network latency average = 20.0594
	minimum = 7
	maximum = 41
Slowest packet = 2265
Flit latency average = 20.1136
	minimum = 7
	maximum = 41
Slowest flit = 2265
Fragmentation average = 0
	minimum = 0
	maximum = 0
Injected packet rate average = 0.00959375
	minimum = 0.0055 (at node 14)
	maximum = 0.0125 (at node 9)
Accepted packet rate average = 0.009625
	minimum = 0 (at node 0)
	maximum = 0.154 (at node 11)
Injected flit rate average = 0.00959375
	minimum = 0.0055 (at node 14)
	maximum = 0.0125 (at node 9)
Accepted flit rate average= 0.009625
	minimum = 0 (at node 0)
	maximum = 0.154 (at node 11)
Injected packet length average = 1
Accepted packet length average = 1
Total in-flight flits = 4 (4 measured)
latency change    = 0.0182521
throughput change = 0.038961
Class 0:
Packet latency average = 20.0206
	minimum = 7
	maximum = 41
Network latency average = 20.0206
	minimum = 7
	maximum = 41
Slowest packet = 2265
Flit latency average = 20.0635
	minimum = 7
	maximum = 41
Slowest flit = 2265
Fragmentation average = 0
	minimum = 0
	maximum = 0
Injected packet rate average = 0.0098
	minimum = 0.006 (at node 3)
	maximum = 0.0124 (at node 7)
Accepted packet rate average = 0.00985
	minimum = 0 (at node 0)
	maximum = 0.1576 (at node 11)
Injected flit rate average = 0.0098
	minimum = 0.006 (at node 3)
	maximum = 0.0124 (at node 7)
Accepted flit rate average= 0.00985
	minimum = 0 (at node 0)
	maximum = 0.1576 (at node 11)
Injected packet length average = 1
Accepted packet length average = 1
Total in-flight flits = 3 (3 measured)
latency change    = 0.00194002
throughput change = 0.0228426
Draining all recorded packets ...
Draining remaining packets ...
Time taken is 4025 cycles
Class 0:
Packet latency average = 19.8375
	minimum = 7
	maximum = 37
Network latency average = 19.8375
	minimum = 7
	maximum = 37
Slowest packet = 2512
Flit latency average = 19.8375
	minimum = 7
	maximum = 37
Slowest flit = 2512
Fragmentation average = 0
	minimum = 0
	maximum = 0
Injected packet rate average = 0.010375
	minimum = 0.002 (at node 0)
	maximum = 0.016 (at node 8)
Accepted packet rate average = 0.01
	minimum = 0 (at node 0)
	maximum = 0.16 (at node 11)
Injected flit rate average = 0.010375
	minimum = 0.002 (at node 0)
	maximum = 0.016 (at node 8)
Accepted flit rate average= 0.01
	minimum = 0 (at node 0)
	maximum = 0.16 (at node 11)
Injected packet length average = 1
Accepted packet length average = 1
Total in-flight flits = 3 (0 measured)
latency change    = 1
throughput change = 1
Class 0:
Packet latency average = 21.1384
	minimum = 7
	maximum = 44
Network latency average = 21.1384
	minimum = 7
	maximum = 44
Slowest packet = 2591
Flit latency average = 21.1384
	minimum = 7
	maximum = 44
Slowest flit = 2591
Fragmentation average = 0
	minimum = 0
	maximum = 0
Injected packet rate average = 0.0101875
	minimum = 0.008 (at node 0)
	maximum = 0.013 (at node 4)
Accepted packet rate average = 0.0099375
	minimum = 0 (at node 0)
	maximum = 0.159 (at node 11)
Injected flit rate average = 0.0101875
	minimum = 0.008 (at node 0)
	maximum = 0.013 (at node 4)
Accepted flit rate average= 0.0099375
	minimum = 0 (at node 0)
	maximum = 0.159 (at node 11)
Injected packet length average = 1
Accepted packet length average = 1
Total in-flight flits = 4 (0 measured)
latency change    = 0.0615405
throughput change = 0.00628931
Class 0:
Packet latency average = 20.4416
	minimum = 7
	maximum = 34
Network latency average = 20.4416
	minimum = 7
	maximum = 34
Slowest packet = 2704
Flit latency average = 20.4416
	minimum = 7
	maximum = 34
Slowest flit = 2704
Fragmentation average = 0
	minimum = 0
	maximum = 0
Injected packet rate average = 0.01025
	minimum = 0.002 (at node 4)
	maximum = 0.02 (at node 11)
Accepted packet rate average = 0.009625
	minimum = 0 (at node 0)
	maximum = 0.154 (at node 11)
Injected flit rate average = 0.01025
	minimum = 0.002 (at node 4)
	maximum = 0.02 (at node 11)
Accepted flit rate average= 0.009625
	minimum = 0 (at node 0)
	maximum = 0.154 (at node 11)
Injected packet length average = 1
Accepted packet length average = 1
Total in-flight flits = 9 (0 measured)
latency change    = 0.0340877
throughput change = 0.0324675
Warmed up ...Time used is 1500 cycles
Class 0:
Packet latency average = 19.0484
	minimum = 7
	maximum = 38
Network latency average = 19.0484
	minimum = 7
	maximum = 38
Slowest packet = 2759
Flit latency average = 19.6338
	minimum = 7
	maximum = 38
Slowest flit = 2759
Fragmentation average = 0
	minimum = 0
	maximum = 0
Injected packet rate average = 0.008
	minimum = 0.002 (at node 8)
	maximum = 0.016 (at node 11)
Accepted packet rate average = 0.008875
	minimum = 0 (at node 0)
	maximum = 0.142 (at node 11)
Injected flit rate average = 0.008
	minimum = 0.002 (at node 8)
	maximum = 0.016 (at node 11)
Accepted flit rate average= 0.008875
	minimum = 0 (at node 0)
	maximum = 0.142 (at node 11)
Injected packet length average = 1
Accepted packet length average = 1
Total in-flight flits = 2 (2 measured)
latency change    = 0.0731385
throughput change = 0.084507
Class 0:
Packet latency average = 19.5072
	minimum = 7
	maximum = 38
Network latency average = 19.5072
	minimum = 7
	maximum = 38
Slowest packet = 2759
Flit latency average = 19.7619
	minimum = 7
	maximum = 38
Slowest flit = 2759
Fragmentation average = 0
	minimum = 0
	maximum = 0
Injected packet rate average = 0.009
	minimum = 0.004 (at node 2)
	maximum = 0.015 (at node 11)
Accepted packet rate average = 0.0091875
	minimum = 0 (at node 0)
	maximum = 0.147 (at node 11)
Injected flit rate average = 0.009
	minimum = 0.004 (at node 2)
	maximum = 0.015 (at node 11)
Accepted flit rate average= 0.0091875
	minimum = 0 (at node 0)
	maximum = 0.147 (at node 11)
Injected packet length average = 1
Accepted packet length average = 1
Total in-flight flits = 6 (6 measured)
latency change    = 0.0235225
throughput change = 0.0340136
Class 0:
Packet latency average = 20.0889
	minimum = 7
	maximum = 38
Network latency average = 20.0889
	minimum = 7
	maximum = 38
Slowest packet = 2759
Flit latency average = 20.2265
	minimum = 7
	maximum = 38
Slowest flit = 2759
Fragmentation average = 0
	minimum = 0
	maximum = 0
Injected packet rate average = 0.0095
	minimum = 0.004 (at node 9)
	maximum = 0.0146667 (at node 12)
Accepted packet rate average = 0.00975
	minimum = 0 (at node 0)
	maximum = 0.156 (at node 11)
Injected flit rate average = 0.0095
	minimum = 0.004 (at node 9)
	maximum = 0.0146667 (at node 12)
Accepted flit rate average= 0.00975
	minimum = 0 (at node 0)
	maximum = 0.156 (at node 11)
Injected packet length average = 1
Accepted packet length average = 1
Total in-flight flits = 3 (3 measured)
latency change    = 0.0289534
throughput change = 0.0576923
Class 0:
Packet latency average = 20.2177
	minimum = 7
	maximum = 45
Network latency average = 20.2177
	minimum = 7
	maximum = 45
Slowest packet = 2999
Flit latency average = 20.3201
	minimum = 7
	maximum = 45
Slowest flit = 2999
Fragmentation average = 0
	minimum = 0
	maximum = 0
Injected packet rate average = 0.00928125
	minimum = 0.003 (at node 9)
	maximum = 0.015 (at node 11)
Accepted packet rate average = 0.00946875
	minimum = 0 (at node 0)
	maximum = 0.1515 (at node 11)
Injected flit rate average = 0.00928125
	minimum = 0.003 (at node 9)
	maximum = 0.015 (at node 11)
Accepted flit rate average= 0.00946875
	minimum = 0 (at node 0)
	maximum = 0.1515 (at node 11)
Injected packet length average = 1
Accepted packet length average = 1
Total in-flight flits = 3 (3 measured)
latency change    = 0.00637057
throughput change = 0.029703
Class 0:
Packet latency average = 19.9187
	minimum = 7
	maximum = 45
Network latency average = 19.9187
	minimum = 7
	maximum = 45
Slowest packet = 2999
Flit latency average = 20.0079
	minimum = 7
	maximum = 45
Slowest flit = 2999
Fragmentation average = 0
	minimum = 0
	maximum = 0
Injected packet rate average = 0.0093
	minimum = 0.004 (at node 9)
	maximum = 0.014 (at node 11)
Accepted packet rate average = 0.00945
	minimum = 0 (at node 0)
	maximum = 0.1512 (at node 11)
Injected flit rate average = 0.0093
	minimum = 0.004 (at node 9)
	maximum = 0.014 (at node 11)
Accepted flit rate average= 0.00945
	minimum = 0 (at node 0)
	maximum = 0.1512 (at node 11)
Injected packet length average = 1
Accepted packet length average = 1
Total in-flight flits = 3 (3 measured)
latency change    = 0.0150104
throughput change = 0.00198413
Class 0:
Packet latency average = 19.9565
	minimum = 7
	maximum = 45
Network latency average = 19.9565
	minimum = 7
	maximum = 45
Slowest packet = 2999
Flit latency average = 20.0314
	minimum = 7
	maximum = 45
Slowest flit = 2999
Fragmentation average = 0
	minimum = 0
	maximum = 0
Injected packet rate average = 0.009125
	minimum = 0.00466667 (at node 9)
	maximum = 0.0136667 (at node 11)
Accepted packet rate average = 0.00929167
	minimum = 0 (at node 0)
	maximum = 0.148667 (at node 11)
Injected flit rate average = 0.009125
	minimum = 0.00466667 (at node 9)
	maximum = 0.0136667 (at node 11)
Accepted flit rate average= 0.00929167
	minimum = 0 (at node 0)
	maximum = 0.148667 (at node 11)
Injected packet length average = 1
Accepted packet length average = 1
Total in-flight flits = 1 (1 measured)
latency change    = 0.00189525
throughput change = 0.0170404
Draining all recorded packets ...
Draining remaining packets ...
Time taken is 4526 cycles
Class 0:
Packet latency average = 19.9167
	minimum = 7
	maximum = 51
Network latency average = 19.9167
	minimum = 7
	maximum = 51
Slowest packet = 3175
Flit latency average = 19.9167
	minimum = 7
	maximum = 51
Slowest flit = 3175
Fragmentation average = 0
	minimum = 0
	maximum = 0
Injected packet rate average = 0.01075
	minimum = 0.004 (at node 6)
	maximum = 0.022 (at node 10)
Accepted packet rate average = 0.0105
	minimum = 0 (at node 0)
	maximum = 0.168 (at node 11)
Injected flit rate average = 0.01075
	minimum = 0.004 (at node 6)
	maximum = 0.022 (at node 10)
Accepted flit rate average= 0.0105
	minimum = 0 (at node 0)
	maximum = 0.168 (at node 11)
Injected packet length average = 1
Accepted packet length average = 1
Total in-flight flits = 2 (0 measured)
latency change    = 1
throughput change = 1
Class 0:
Packet latency average = 19.7215
	minimum = 7
	maximum = 51
Network latency average = 19.7215
	minimum = 7
	maximum = 51
Slowest packet = 3175
Flit latency average = 19.7215
	minimum = 7
	maximum = 51
Slowest flit = 3175
Fragmentation average = 0
	minimum = 0
	maximum = 0
Injected packet rate average = 0.01
	minimum = 0.004 (at node 6)
	maximum = 0.016 (at node 7)
Accepted packet rate average = 0.009875
	minimum = 0 (at node 0)
	maximum = 0.158 (at node 11)
Injected flit rate average = 0.01
	minimum = 0.004 (at node 6)
	maximum = 0.016 (at node 7)
Accepted flit rate average= 0.009875
	minimum = 0 (at node 0)
	maximum = 0.158 (at node 11)
Injected packet length average = 1
Accepted packet length average = 1
Total in-flight flits = 2 (0 measured)
latency change    = 0.00989516
throughput change = 0.0632911
Class 0:
Packet latency average = 21.1059
	minimum = 7
	maximum = 44
Network latency average = 21.1059
	minimum = 7
	maximum = 44
Slowest packet = 3400
Flit latency average = 21.1059
	minimum = 7
	maximum = 44
Slowest flit = 3400
Fragmentation average = 0
	minimum = 0
	maximum = 0
Injected packet rate average = 0.011
	minimum = 0.004 (at node 2)
	maximum = 0.026 (at node 12)
Accepted packet rate average = 0.010625
	minimum = 0 (at node 0)
	maximum = 0.17 (at node 11)
Injected flit rate average = 0.011
	minimum = 0.004 (at node 2)
	maximum = 0.026 (at node 12)
Accepted flit rate average= 0.010625
	minimum = 0 (at node 0)
	maximum = 0.17 (at node 11)
Injected packet length average = 1
Accepted packet length average = 1
Total in-flight flits = 5 (0 measured)
latency change    = 0.0655914
throughput change = 0.0705882
Warmed up ...Time used is 1500 cycles
Class 0:
Packet latency average = 20.8539
	minimum = 7
	maximum = 50
Network latency average = 20.8539
	minimum = 7
	maximum = 50
Slowest packet = 3438
Flit latency average = 21.1383
	minimum = 7
	maximum = 50
Slowest flit = 3438
Fragmentation average = 0
	minimum = 0
	maximum = 0
Injected packet rate average = 0.011375
	minimum = 0.004 (at node 1)
	maximum = 0.02 (at node 0)
Accepted packet rate average = 0.01175
	minimum = 0 (at node 0)
	maximum = 0.188 (at node 11)
Injected flit rate average = 0.011375
	minimum = 0.004 (at node 1)
	maximum = 0.02 (at node 0)
Accepted flit rate average= 0.01175
	minimum = 0 (at node 0)
	maximum = 0.188 (at node 11)
Injected packet length average = 1
Accepted packet length average = 1
Total in-flight flits = 2 (2 measured)
latency change    = 0.0120816
throughput change = 0.0957447
Class 0:
Packet latency average = 20.1796
	minimum = 7
	maximum = 50
Network latency average = 20.1796
	minimum = 7
	maximum = 50
Slowest packet = 3438
Flit latency average = 20.3547
	minimum = 7
	maximum = 50
Slowest flit = 3438
Fragmentation average = 0
	minimum = 0
	maximum = 0
Injected packet rate average = 0.0105625
	minimum = 0.005 (at node 12)
	maximum = 0.019 (at node 14)
Accepted packet rate average = 0.01075
	minimum = 0 (at node 0)
	maximum = 0.172 (at node 11)
Injected flit rate average = 0.0105625
	minimum = 0.005 (at node 12)
	maximum = 0.019 (at node 14)
Accepted flit rate average= 0.01075
	minimum = 0 (at node 0)
	maximum = 0.172 (at node 11)
Injected packet length average = 1
Accepted packet length average = 1
Total in-flight flits = 2 (2 measured)
latency change    = 0.0334145
throughput change = 0.0930233
Class 0:
Packet latency average = 20.2348
	minimum = 7
	maximum = 50
Network latency average = 20.2348
	minimum = 7
	maximum = 50
Slowest packet = 3438
Flit latency average = 20.3617
	minimum = 7
	maximum = 50
Slowest flit = 3438
Fragmentation average = 0
	minimum = 0
	maximum = 0
Injected packet rate average = 0.009625
	minimum = 0.00466667 (at node 12)
	maximum = 0.0146667 (at node 14)
Accepted packet rate average = 0.00979167
	minimum = 0 (at node 0)
	maximum = 0.156667 (at node 11)
Injected flit rate average = 0.009625
	minimum = 0.00466667 (at node 12)
	maximum = 0.0146667 (at node 14)
Accepted flit rate average= 0.00979167
	minimum = 0 (at node 0)
	maximum = 0.156667 (at node 11)
Injected packet length average = 1
Accepted packet length average = 1
Total in-flight flits = 1 (1 measured)
latency change    = 0.0027251
throughput change = 0.0978723
Class 0:
Packet latency average = 19.7973
	minimum = 7
	maximum = 50
Network latency average = 19.7973
	minimum = 7
	maximum = 50
Slowest packet = 3438
Flit latency average = 19.9037
	minimum = 7
	maximum = 50
Slowest flit = 3438
Fragmentation average = 0
	minimum = 0
	maximum = 0
Injected packet rate average = 0.00934375
	minimum = 0.0055 (at node 2)
	maximum = 0.013 (at node 11)
Accepted packet rate average = 0.00940625
	minimum = 0 (at node 0)
	maximum = 0.1505 (at node 11)
Injected flit rate average = 0.00934375
	minimum = 0.0055 (at node 2)
	maximum = 0.013 (at node 11)
Accepted flit rate average= 0.00940625
	minimum = 0 (at node 0)
	maximum = 0.1505 (at node 11)
Injected packet length average = 1
Accepted packet length average = 1
Total in-flight flits = 3 (3 measured)
latency change    = 0.0220982
throughput change = 0.0409745
Class 0:
Packet latency average = 19.5175
	minimum = 7
	maximum = 50
Network latency average = 19.5175
	minimum = 7
	maximum = 50
Slowest packet = 3438
Flit latency average = 19.6064
	minimum = 7
	maximum = 50
Slowest flit = 3438
Fragmentation average = 0
	minimum = 0
	maximum = 0
Injected packet rate average = 0.00935
	minimum = 0.0056 (at node 2)
	maximum = 0.014 (at node 11)
Accepted packet rate average = 0.0094
	minimum = 0 (at node 0)
	maximum = 0.1504 (at node 11)
Injected flit rate average = 0.00935
	minimum = 0.0056 (at node 2)
	maximum = 0.014 (at node 11)
Accepted flit rate average= 0.0094
	minimum = 0 (at node 0)
	maximum = 0.1504 (at node 11)
Injected packet length average = 1
Accepted packet length average = 1
Total in-flight flits = 3 (3 measured)
latency change    = 0.0143347
throughput change = 0.000664894
Class 0:
Packet latency average = 19.5796
	minimum = 7
	maximum = 50
Network latency average = 19.5796
	minimum = 7
	maximum = 50
Slowest packet = 3438
Flit latency average = 19.6521
	minimum = 7
	maximum = 50
Slowest flit = 3438
Fragmentation average = 0
	minimum = 0
	maximum = 0
Injected packet rate average = 0.0094375
	minimum = 0.00633333 (at node 2)
	maximum = 0.0136667 (at node 11)
Accepted packet rate average = 0.00952083
	minimum = 0 (at node 0)
	maximum = 0.152333 (at node 11)
Injected flit rate average = 0.0094375
	minimum = 0.00633333 (at node 2)
	maximum = 0.0136667 (at node 11)
Accepted flit rate average= 0.00952083
	minimum = 0 (at node 0)
	maximum = 0.152333 (at node 11)
Injected packet length average = 1
Accepted packet length average = 1
Total in-flight flits = 1 (1 measured)
latency change    = 0.00317298
throughput change = 0.0126915
Draining all recorded packets ...
Draining remaining packets ...
Time taken is 4548 cycles
Class 0:
Packet latency average = 20.411
	minimum = 7
	maximum = 35
Network latency average = 20.411
	minimum = 7
	maximum = 35
Slowest packet = 3934
Flit latency average = 20.411
	minimum = 7
	maximum = 35
Slowest flit = 3934
Fragmentation average = 0
	minimum = 0
	maximum = 0
Injected packet rate average = 0.00925
	minimum = 0 (at node 10)
	maximum = 0.02 (at node 14)
Accepted packet rate average = 0.009125
	minimum = 0 (at node 0)
	maximum = 0.146 (at node 11)
Injected flit rate average = 0.00925
	minimum = 0 (at node 10)
	maximum = 0.02 (at node 14)
Accepted flit rate average= 0.009125
	minimum = 0 (at node 0)
	maximum = 0.146 (at node 11)
Injected packet length average = 1
Accepted packet length average = 1
Total in-flight flits = 1 (0 measured)
latency change    = 1
throughput change = 1
Class 0:
Packet latency average = 19.7625
	minimum = 7
	maximum = 35
Network latency average = 19.7625
	minimum = 7
	maximum = 35
Slowest packet = 3934
Flit latency average = 19.7625
	minimum = 7
	maximum = 35
Slowest flit = 3934
Fragmentation average = 0
	minimum = 0
	maximum = 0
Injected packet rate average = 0.0103125
	minimum = 0.004 (at node 10)
	maximum = 0.017 (at node 14)
Accepted packet rate average = 0.01
	minimum = 0 (at node 0)
	maximum = 0.16 (at node 11)
Injected flit rate average = 0.0103125
	minimum = 0.004 (at node 10)
	maximum = 0.017 (at node 14)
Accepted flit rate average= 0.01
	minimum = 0 (at node 0)
	maximum = 0.16 (at node 11)
Injected packet length average = 1
Accepted packet length average = 1
Total in-flight flits = 5 (0 measured)
latency change    = 0.0328126
throughput change = 0.0875
Class 0:
Packet latency average = 20.8966
	minimum = 7
	maximum = 39
Network latency average = 20.8966
	minimum = 7
	maximum = 39
Slowest packet = 4109
Flit latency average = 20.8966
	minimum = 7
	maximum = 39
Slowest flit = 4109
Fragmentation average = 0
	minimum = 0
	maximum = 0
Injected packet rate average = 0.010625
	minimum = 0.006 (at node 2)
	maximum = 0.018 (at node 0)
Accepted packet rate average = 0.010875
	minimum = 0 (at node 0)
	maximum = 0.174 (at node 11)
Injected flit rate average = 0.010625
	minimum = 0.006 (at node 2)
	maximum = 0.018 (at node 0)
Accepted flit rate average= 0.010875
	minimum = 0 (at node 0)
	maximum = 0.174 (at node 11)
Injected packet length average = 1
Accepted packet length average = 1
Total in-flight flits = 3 (0 measured)
latency change    = 0.0542698
throughput change = 0.0804598
Warmed up ...Time used is 1500 cycles
Class 0:
Packet latency average = 20.5385
	minimum = 7
	maximum = 36
Network latency average = 20.5385
	minimum = 7
	maximum = 36
Slowest packet = 4157
Flit latency average = 20.4559
	minimum = 7
	maximum = 36
Slowest flit = 4157
Fragmentation average = 0
	minimum = 0
	maximum = 0
Injected packet rate average = 0.00825
	minimum = 0.002 (at node 6)
	maximum = 0.014 (at node 2)
Accepted packet rate average = 0.0085
	minimum = 0 (at node 0)
	maximum = 0.136 (at node 11)
Injected flit rate average = 0.00825
	minimum = 0.002 (at node 6)
	maximum = 0.014 (at node 2)
Accepted flit rate average= 0.0085
	minimum = 0 (at node 0)
	maximum = 0.136 (at node 11)
Injected packet length average = 1
Accepted packet length average = 1
Total in-flight flits = 1 (1 measured)
latency change    = 0.0174351
throughput change = 0.279412
Class 0:
Packet latency average = 20.4483
	minimum = 7
	maximum = 42
Network latency average = 20.4483
	minimum = 7
	maximum = 42
Slowest packet = 4246
Flit latency average = 20.4122
	minimum = 7
	maximum = 42
Slowest flit = 4246
Fragmentation average = 0
	minimum = 0
	maximum = 0
Injected packet rate average = 0.0093125
	minimum = 0.005 (at node 7)
	maximum = 0.014 (at node 2)
Accepted packet rate average = 0.00925
	minimum = 0 (at node 0)
	maximum = 0.148 (at node 11)
Injected flit rate average = 0.0093125
	minimum = 0.005 (at node 7)
	maximum = 0.014 (at node 2)
Accepted flit rate average= 0.00925
	minimum = 0 (at node 0)
	maximum = 0.148 (at node 11)
Injected packet length average = 1
Accepted packet length average = 1
Total in-flight flits = 4 (4 measured)
latency change    = 0.00441043
throughput change = 0.0810811
Class 0:
Packet latency average = 20.5913
	minimum = 7
	maximum = 42
Network latency average = 20.5913
	minimum = 7
	maximum = 42
Slowest packet = 4246
Flit latency average = 20.5665
	minimum = 7
	maximum = 42
Slowest flit = 4246
Fragmentation average = 0
	minimum = 0
	maximum = 0
Injected packet rate average = 0.00970833
	minimum = 0.006 (at node 7)
	maximum = 0.0166667 (at node 8)
Accepted packet rate average = 0.00970833
	minimum = 0 (at node 0)
	maximum = 0.155333 (at node 11)
Injected flit rate average = 0.00970833
	minimum = 0.006 (at node 7)
	maximum = 0.0166667 (at node 8)
Accepted flit rate average= 0.00970833
	minimum = 0 (at node 0)
	maximum = 0.155333 (at node 11)
Injected packet length average = 1
Accepted packet length average = 1
Total in-flight flits = 3 (3 measured)
latency change    = 0.00694606
throughput change = 0.0472103
Class 0:
Packet latency average = 20.6635
	minimum = 7
	maximum = 42
Network latency average = 20.6635
	minimum = 7
	maximum = 42
Slowest packet = 4246
Flit latency average = 20.6444
	minimum = 7
	maximum = 42
Slowest flit = 4246
Fragmentation average = 0
	minimum = 0
	maximum = 0
Injected packet rate average = 0.00984375
	minimum = 0.0065 (at node 7)
	maximum = 0.014 (at node 8)
Accepted packet rate average = 0.00984375
	minimum = 0 (at node 0)
	maximum = 0.1575 (at node 11)
Injected flit rate average = 0.00984375
	minimum = 0.0065 (at node 7)
	maximum = 0.014 (at node 8)
Accepted flit rate average= 0.00984375
	minimum = 0 (at node 0)
	maximum = 0.1575 (at node 11)
Injected packet length average = 1
Accepted packet length average = 1
Total in-flight flits = 3 (3 measured)
latency change    = 0.00349202
throughput change = 0.0137566
Class 0:
Packet latency average = 20.7769
	minimum = 7
	maximum = 42
Network latency average = 20.7769
	minimum = 7
	maximum = 42
Slowest packet = 4246
Flit latency average = 20.7612
	minimum = 7
	maximum = 42
Slowest flit = 4246
Fragmentation average = 0
	minimum = 0
	maximum = 0
Injected packet rate average = 0.01005
	minimum = 0.0064 (at node 11)
	maximum = 0.0156 (at node 8)
Accepted packet rate average = 0.01005
	minimum = 0 (at node 0)
	maximum = 0.1608 (at node 11)
Injected flit rate average = 0.01005
	minimum = 0.0064 (at node 11)
	maximum = 0.0156 (at node 8)
Accepted flit rate average= 0.01005
	minimum = 0 (at node 0)
	maximum = 0.1608 (at node 11)
Injected packet length average = 1
Accepted packet length average = 1
Total in-flight flits = 3 (3 measured)
latency change    = 0.00546186
throughput change = 0.0205224
Draining all recorded packets ...
Draining remaining packets ...
Time taken is 4035 cycles
Class 0:
Packet latency average = 20.3378
	minimum = 7
	maximum = 40
Network latency average = 20.3378
	minimum = 7
	maximum = 40
Slowest packet = 4578
Flit latency average = 20.3378
	minimum = 7
	maximum = 40
Slowest flit = 4578
Fragmentation average = 0
	minimum = 0
	maximum = 0
Injected packet rate average = 0.0095
	minimum = 0.002 (at node 2)
	maximum = 0.02 (at node 5)
Accepted packet rate average = 0.00925
	minimum = 0 (at node 0)
	maximum = 0.148 (at node 11)
Injected flit rate average = 0.0095
	minimum = 0.002 (at node 2)
	maximum = 0.02 (at node 5)
Accepted flit rate average= 0.00925
	minimum = 0 (at node 0)
	maximum = 0.148 (at node 11)
Injected packet length average = 1
Accepted packet length average = 1
Total in-flight flits = 2 (0 measured)
latency change    = 1
throughput change = 1
Class 0:
Packet latency average = 20.1018
	minimum = 7
	maximum = 40
Network latency average = 20.1018
	minimum = 7
	maximum = 40
Slowest packet = 4578
Flit latency average = 20.1018
	minimum = 7
	maximum = 40
Slowest flit = 4578
Fragmentation average = 0
	minimum = 0
	maximum = 0
Injected packet rate average = 0.010625
	minimum = 0.005 (at node 14)
	maximum = 0.02 (at node 5)
Accepted packet rate average = 0.0104375
	minimum = 0 (at node 0)
	maximum = 0.167 (at node 11)
Injected flit rate average = 0.010625
	minimum = 0.005 (at node 14)
	maximum = 0.02 (at node 5)
Accepted flit rate average= 0.0104375
	minimum = 0 (at node 0)
	maximum = 0.167 (at node 11)
Injected packet length average = 1
Accepted packet length average = 1
Total in-flight flits = 3 (0 measured)
latency change    = 0.0117423
throughput change = 0.113772
Class 0:
Packet latency average = 19.5571
	minimum = 7
	maximum = 33
Network latency average = 19.5571
	minimum = 7
	maximum = 33
Slowest packet = 4698
Flit latency average = 19.5571
	minimum = 7
	maximum = 33
Slowest flit = 4698
Fragmentation average = 0
	minimum = 0
	maximum = 0
Injected packet rate average = 0.008625
	minimum = 0.002 (at node 0)
	maximum = 0.018 (at node 12)
Accepted packet rate average = 0.00875
	minimum = 0 (at node 0)
	maximum = 0.14 (at node 11)
Injected flit rate average = 0.008625
	minimum = 0.002 (at node 0)
	maximum = 0.018 (at node 12)
Accepted flit rate average= 0.00875
	minimum = 0 (at node 0)
	maximum = 0.14 (at node 11)
Injected packet length average = 1
Accepted packet length average = 1
Total in-flight flits = 2 (0 measured)
latency change    = 0.0278493
throughput change = 0.192857
Warmed up ...Time used is 1500 cycles
Class 0:
Packet latency average = 19.1594
	minimum = 7
	maximum = 35
Network latency average = 19.1594
	minimum = 7
	maximum = 35
Slowest packet = 4778
Flit latency average = 19.3099
	minimum = 7
	maximum = 35
Slowest flit = 4778
Fragmentation average = 0
	minimum = 0
	maximum = 0
Injected packet rate average = 0.009
	minimum = 0.002 (at node 3)
	maximum = 0.016 (at node 15)
Accepted packet rate average = 0.008875
	minimum = 0 (at node 0)
	maximum = 0.142 (at node 11)
Injected flit rate average = 0.009
	minimum = 0.002 (at node 3)
	maximum = 0.016 (at node 15)
Accepted flit rate average= 0.008875
	minimum = 0 (at node 0)
	maximum = 0.142 (at node 11)
Injected packet length average = 1
Accepted packet length average = 1
Total in-flight flits = 3 (3 measured)
latency change    = 0.0207586
throughput change = 0.0140845
Class 0:
Packet latency average = 20.7532
	minimum = 7
	maximum = 42
Network latency average = 20.7532
	minimum = 7
	maximum = 42
Slowest packet = 4868
Flit latency average = 20.8
	minimum = 7
	maximum = 42
Slowest flit = 4868
Fragmentation average = 0
	minimum = 0
	maximum = 0
Injected packet rate average = 0.0100625
	minimum = 0.004 (at node 9)
	maximum = 0.017 (at node 0)
Accepted packet rate average = 0.01
	minimum = 0 (at node 0)
	maximum = 0.16 (at node 11)
Injected flit rate average = 0.0100625
	minimum = 0.004 (at node 9)
	maximum = 0.017 (at node 0)
Accepted flit rate average= 0.01
	minimum = 0 (at node 0)
	maximum = 0.16 (at node 11)
Injected packet length average = 1
Accepted packet length average = 1
Total in-flight flits = 3 (3 measured)
latency change    = 0.0767952
throughput change = 0.1125
Class 0:
Packet latency average = 20.443
	minimum = 7
	maximum = 42
Network latency average = 20.443
	minimum = 7
	maximum = 42
Slowest packet = 4868
Flit latency average = 20.477
	minimum = 7
	maximum = 42
Slowest flit = 4868
Fragmentation average = 0
	minimum = 0
	maximum = 0
Injected packet rate average = 0.00995833
	minimum = 0.006 (at node 3)
	maximum = 0.014 (at node 10)
Accepted packet rate average = 0.00995833
	minimum = 0 (at node 0)
	maximum = 0.159333 (at node 11)
Injected flit rate average = 0.00995833
	minimum = 0.006 (at node 3)
	maximum = 0.014 (at node 10)
Accepted flit rate average= 0.00995833
	minimum = 0 (at node 0)
	maximum = 0.159333 (at node 11)
Injected packet length average = 1
Accepted packet length average = 1
Total in-flight flits = 2 (2 measured)
latency change    = 0.0151703
throughput change = 0.0041841
Class 0:
Packet latency average = 20.4611
	minimum = 7
	maximum = 42
Network latency average = 20.4611
	minimum = 7
	maximum = 42
Slowest packet = 4868
Flit latency average = 20.4861
	minimum = 7
	maximum = 42
Slowest flit = 4868
Fragmentation average = 0
	minimum = 0
	maximum = 0
Injected packet rate average = 0.0100938
	minimum = 0.0065 (at node 6)
	maximum = 0.014 (at node 10)
Accepted packet rate average = 0.0100938
	minimum = 0 (at node 0)
	maximum = 0.1615 (at node 11)
Injected flit rate average = 0.0100938
	minimum = 0.0065 (at node 6)
	maximum = 0.014 (at node 10)
Accepted flit rate average= 0.0100938
	minimum = 0 (at node 0)
	maximum = 0.1615 (at node 11)
Injected packet length average = 1
Accepted packet length average = 1
Total in-flight flits = 2 (2 measured)
latency change    = 0.000880757
throughput change = 0.0134159
Class 0:
Packet latency average = 20.4849
	minimum = 7
	maximum = 42
Network latency average = 20.4849
	minimum = 7
	maximum = 42
Slowest packet = 4868
Flit latency average = 20.505
	minimum = 7
	maximum = 42
Slowest flit = 4868
Fragmentation average = 0
	minimum = 0
	maximum = 0
Injected packet rate average = 0.01005
	minimum = 0.0076 (at node 7)
	maximum = 0.0136 (at node 15)
Accepted packet rate average = 0.01
	minimum = 0 (at node 0)
	maximum = 0.16 (at node 11)
Injected flit rate average = 0.01005
	minimum = 0.0076 (at node 7)
	maximum = 0.0136 (at node 15)
Accepted flit rate average= 0.01
	minimum = 0 (at node 0)
	maximum = 0.16 (at node 11)
Injected packet length average = 1
Accepted packet length average = 1
Total in-flight flits = 4 (4 measured)
latency change    = 0.00116502
throughput change = 0.009375
Draining all recorded packets ...
Draining remaining packets ...
Time taken is 4036 cycles
Class 0:
Packet latency average = 19.4857
	minimum = 7
	maximum = 39
Network latency average = 19.4857
	minimum = 7
	maximum = 39
Slowest packet = 5215
Flit latency average = 19.4857
	minimum = 7
	maximum = 39
Slowest flit = 5215
Fragmentation average = 0
	minimum = 0
	maximum = 0
Injected packet rate average = 0.009
	minimum = 0.004 (at node 5)
	maximum = 0.016 (at node 3)
Accepted packet rate average = 0.00875
	minimum = 0 (at node 0)
	maximum = 0.14 (at node 11)
Injected flit rate average = 0.009
	minimum = 0.004 (at node 5)
	maximum = 0.016 (at node 3)
Accepted flit rate average= 0.00875
	minimum = 0 (at node 0)
	maximum = 0.14 (at node 11)
Injected packet length average = 1
Accepted packet length average = 1
Total in-flight flits = 2 (0 measured)
latency change    = 1
throughput change = 1
Class 0:
Packet latency average = 19.6859
	minimum = 7
	maximum = 39
Network latency average = 19.6859
	minimum = 7
	maximum = 39
Slowest packet = 5215
Flit latency average = 19.6859
	minimum = 7
	maximum = 39
Slowest flit = 5215
Fragmentation average = 0
	minimum = 0
	maximum = 0
Injected packet rate average = 0.0099375
	minimum = 0.005 (at node 5)
	maximum = 0.017 (at node 12)
Accepted packet rate average = 0.00975
	minimum = 0 (at node 0)
	maximum = 0.156 (at node 11)
Injected flit rate average = 0.0099375
	minimum = 0.005 (at node 5)
	maximum = 0.017 (at node 12)
Accepted flit rate average= 0.00975
	minimum = 0 (at node 0)
	maximum = 0.156 (at node 11)
Injected packet length average = 1
Accepted packet length average = 1
Total in-flight flits = 3 (0 measured)
latency change    = 0.0101689
throughput change = 0.102564
Class 0:
Packet latency average = 20.3553
	minimum = 7
	maximum = 33
Network latency average = 20.3553
	minimum = 7
	maximum = 33
Slowest packet = 5336
Flit latency average = 20.3553
	minimum = 7
	maximum = 33
Slowest flit = 5336
Fragmentation average = 0
	minimum = 0
	maximum = 0
Injected packet rate average = 0.0095
	minimum = 0.004 (at node 5)
	maximum = 0.02 (at node 8)
Accepted packet rate average = 0.0095
	minimum = 0 (at node 0)
	maximum = 0.152 (at node 11)
Injected flit rate average = 0.0095
	minimum = 0.004 (at node 5)
	maximum = 0.02 (at node 8)
Accepted flit rate average= 0.0095
	minimum = 0 (at node 0)
	maximum = 0.152 (at node 11)
Injected packet length average = 1
Accepted packet length average = 1
Total in-flight flits = 3 (0 measured)
latency change    = 0.0328842
throughput change = 0.0263158
Warmed up ...Time used is 1500 cycles
Class 0:
Packet latency average = 19.4032
	minimum = 7
	maximum = 32
Network latency average = 19.4032
	minimum = 7
	maximum = 32
Slowest packet = 5406
Flit latency average = 19.4462
	minimum = 7
	maximum = 32
Slowest flit = 5406
Fragmentation average = 0
	minimum = 0
	maximum = 0
Injected packet rate average = 0.007875
	minimum = 0.004 (at node 0)
	maximum = 0.012 (at node 6)
Accepted packet rate average = 0.008125
	minimum = 0 (at node 0)
	maximum = 0.13 (at node 11)
Injected flit rate average = 0.007875
	minimum = 0.004 (at node 0)
	maximum = 0.012 (at node 6)
Accepted flit rate average= 0.008125
	minimum = 0 (at node 0)
	maximum = 0.13 (at node 11)
Injected packet length average = 1
Accepted packet length average = 1
Total in-flight flits = 1 (1 measured)
latency change    = 0.0490659
throughput change = 0.169231
Class 0:
Packet latency average = 20.2632
	minimum = 7
	maximum = 32
Network latency average = 20.2632
	minimum = 7
	maximum = 32
Slowest packet = 5406
Flit latency average = 20.2647
	minimum = 7
	maximum = 32
Slowest flit = 5406
Fragmentation average = 0
	minimum = 0
	maximum = 0
Injected packet rate average = 0.0085625
	minimum = 0.004 (at node 1)
	maximum = 0.014 (at node 12)
Accepted packet rate average = 0.0085
	minimum = 0 (at node 0)
	maximum = 0.136 (at node 11)
Injected flit rate average = 0.0085625
	minimum = 0.004 (at node 1)
	maximum = 0.014 (at node 12)
Accepted flit rate average= 0.0085
	minimum = 0 (at node 0)
	maximum = 0.136 (at node 11)
Injected packet length average = 1
Accepted packet length average = 1
Total in-flight flits = 4 (4 measured)
latency change    = 0.0424382
throughput change = 0.0441176
Class 0:
Packet latency average = 19.9135
	minimum = 7
	maximum = 32
Network latency average = 19.9135
	minimum = 7
	maximum = 32
Slowest packet = 5406
Flit latency average = 19.9194
	minimum = 7
	maximum = 32
Slowest flit = 5406
Fragmentation average = 0
	minimum = 0
	maximum = 0
Injected packet rate average = 0.00870833
	minimum = 0.00333333 (at node 0)
	maximum = 0.0133333 (at node 13)
Accepted packet rate average = 0.00879167
	minimum = 0 (at node 0)
	maximum = 0.140667 (at node 11)
Injected flit rate average = 0.00870833
	minimum = 0.00333333 (at node 0)
	maximum = 0.0133333 (at node 13)
Accepted flit rate average= 0.00879167
	minimum = 0 (at node 0)
	maximum = 0.140667 (at node 11)
Injected packet length average = 1
Accepted packet length average = 1
Total in-flight flits = 1 (1 measured)
latency change    = 0.0175608
throughput change = 0.0331754
Class 0:
Packet latency average = 19.7474
	minimum = 7
	maximum = 36
Network latency average = 19.7474
	minimum = 7
	maximum = 36
Slowest packet = 5612
Flit latency average = 19.7535
	minimum = 7
	maximum = 36
Slowest flit = 5612
Fragmentation average = 0
	minimum = 0
	maximum = 0
Injected packet rate average = 0.00903125
	minimum = 0.005 (at node 0)
	maximum = 0.0135 (at node 6)
Accepted packet rate average = 0.009
	minimum = 0 (at node 0)
	maximum = 0.144 (at node 11)
Injected flit rate average = 0.00903125
	minimum = 0.005 (at node 0)
	maximum = 0.0135 (at node 6)
Accepted flit rate average= 0.009
	minimum = 0 (at node 0)
	maximum = 0.144 (at node 11)
Injected packet length average = 1
Accepted packet length average = 1
Total in-flight flits = 4 (4 measured)
latency change    = 0.0084109
throughput change = 0.0231481
Draining all recorded packets ...
Draining remaining packets ...
Time taken is 3540 cycles
Class 0:
Packet latency average = 21.1667
	minimum = 7
	maximum = 37
Network latency average = 21.1667
	minimum = 7
	maximum = 37
Slowest packet = 5723
Flit latency average = 21.1667
	minimum = 7
	maximum = 37
Slowest flit = 5723
Fragmentation average = 0
	minimum = 0
	maximum = 0
Injected packet rate average = 0.008875
	minimum = 0.002 (at node 15)
	maximum = 0.016 (at node 0)
Accepted packet rate average = 0.00825
	minimum = 0 (at node 0)
	maximum = 0.132 (at node 11)
Injected flit rate average = 0.008875
	minimum = 0.002 (at node 15)
	maximum = 0.016 (at node 0)
Accepted flit rate average= 0.00825
	minimum = 0 (at node 0)
	maximum = 0.132 (at node 11)
Injected packet length average = 1
Accepted packet length average = 1
Total in-flight flits = 5 (0 measured)
latency change    = 1
throughput change = 1
Class 0:
Packet latency average = 21.1558
	minimum = 7
	maximum = 42
Network latency average = 21.1558
	minimum = 7
	maximum = 42
Slowest packet = 5841
Flit latency average = 21.1558
	minimum = 7
	maximum = 42
Slowest flit = 5841
Fragmentation average = 0
	minimum = 0
	maximum = 0
Injected packet rate average = 0.01
	minimum = 0.005 (at node 11)
	maximum = 0.014 (at node 4)
Accepted packet rate average = 0.009625
	minimum = 0 (at node 0)
	maximum = 0.154 (at node 11)
Injected flit rate average = 0.01
	minimum = 0.005 (at node 11)
	maximum = 0.014 (at node 4)
Accepted flit rate average= 0.009625
	minimum = 0 (at node 0)
	maximum = 0.154 (at node 11)
Injected packet length average = 1
Accepted packet length average = 1
Total in-flight flits = 6 (0 measured)
latency change    = 0.000511561
throughput change = 0.142857
Class 0:
Packet latency average = 21.5278
	minimum = 7
	maximum = 46
Network latency average = 21.5278
	minimum = 7
	maximum = 46
Slowest packet = 5847
Flit latency average = 21.5278
	minimum = 7
	maximum = 46
Slowest flit = 5847
Fragmentation average = 0
	minimum = 0
	maximum = 0
Injected packet rate average = 0.008875
	minimum = 0.002 (at node 9)
	maximum = 0.02 (at node 12)
Accepted packet rate average = 0.009
	minimum = 0 (at node 0)
	maximum = 0.144 (at node 11)
Injected flit rate average = 0.008875
	minimum = 0.002 (at node 9)
	maximum = 0.02 (at node 12)
Accepted flit rate average= 0.009
	minimum = 0 (at node 0)
	maximum = 0.144 (at node 11)
Injected packet length average = 1
Accepted packet length average = 1
Total in-flight flits = 5 (0 measured)
latency change    = 0.0172769
throughput change = 0.0694444
Warmed up ...Time used is 1500 cycles
Class 0:
Packet latency average = 21.6296
	minimum = 7
	maximum = 37
Network latency average = 21.6296
	minimum = 7
	maximum = 37
Slowest packet = 5974
Flit latency average = 21.9302
	minimum = 7
	maximum = 37
Slowest flit = 5974
Fragmentation average = 0
	minimum = 0
	maximum = 0
Injected packet rate average = 0.010125
	minimum = 0.002 (at node 7)
	maximum = 0.016 (at node 0)
Accepted packet rate average = 0.01075
	minimum = 0 (at node 0)
	maximum = 0.172 (at node 11)
Injected flit rate average = 0.010125
	minimum = 0.002 (at node 7)
	maximum = 0.016 (at node 0)
Accepted flit rate average= 0.01075
	minimum = 0 (at node 0)
	maximum = 0.172 (at node 11)
Injected packet length average = 1
Accepted packet length average = 1
Total in-flight flits = 0 (0 measured)
latency change    = 0.0047089
throughput change = 0.162791
Class 0:
Packet latency average = 19.9543
	minimum = 7
	maximum = 37
Network latency average = 19.9543
	minimum = 7
	maximum = 37
Slowest packet = 5974
Flit latency average = 20.1444
	minimum = 7
	maximum = 37
Slowest flit = 5974
Fragmentation average = 0
	minimum = 0
	maximum = 0
Injected packet rate average = 0.01125
	minimum = 0.006 (at node 7)
	maximum = 0.016 (at node 2)
Accepted packet rate average = 0.01125
	minimum = 0 (at node 0)
	maximum = 0.18 (at node 11)
Injected flit rate average = 0.01125
	minimum = 0.006 (at node 7)
	maximum = 0.016 (at node 2)
Accepted flit rate average= 0.01125
	minimum = 0 (at node 0)
	maximum = 0.18 (at node 11)
Injected packet length average = 1
Accepted packet length average = 1
Total in-flight flits = 5 (5 measured)
latency change    = 0.0839591
throughput change = 0.0444444
Class 0:
Packet latency average = 19.748
	minimum = 7
	maximum = 38
Network latency average = 19.748
	minimum = 7
	maximum = 38
Slowest packet = 6146
Flit latency average = 19.8842
	minimum = 7
	maximum = 38
Slowest flit = 6146
Fragmentation average = 0
	minimum = 0
	maximum = 0
Injected packet rate average = 0.0107083
	minimum = 0.00666667 (at node 1)
	maximum = 0.014 (at node 11)
Accepted packet rate average = 0.0107917
	minimum = 0 (at node 0)
	maximum = 0.172667 (at node 11)
Injected flit rate average = 0.0107083
	minimum = 0.00666667 (at node 1)
	maximum = 0.014 (at node 11)
Accepted flit rate average= 0.0107917
	minimum = 0 (at node 0)
	maximum = 0.172667 (at node 11)
Injected packet length average = 1
Accepted packet length average = 1
Total in-flight flits = 3 (3 measured)
latency change    = 0.0104443
throughput change = 0.042471
Class 0:
Packet latency average = 19.7747
	minimum = 7
	maximum = 38
Network latency average = 19.7747
	minimum = 7
	maximum = 38
Slowest packet = 6146
Flit latency average = 19.8815
	minimum = 7
	maximum = 38
Slowest flit = 6146
Fragmentation average = 0
	minimum = 0
	maximum = 0
Injected packet rate average = 0.01025
	minimum = 0.008 (at node 3)
	maximum = 0.0135 (at node 6)
Accepted packet rate average = 0.0102813
	minimum = 0 (at node 0)
	maximum = 0.1645 (at node 11)
Injected flit rate average = 0.01025
	minimum = 0.008 (at node 3)
	maximum = 0.0135 (at node 6)
Accepted flit rate average= 0.0102813
	minimum = 0 (at node 0)
	maximum = 0.1645 (at node 11)
Injected packet length average = 1
Accepted packet length average = 1
Total in-flight flits = 4 (4 measured)
latency change    = 0.00134818
throughput change = 0.0496454
Class 0:
Packet latency average = 19.9605
	minimum = 7
	maximum = 45
Network latency average = 19.9605
	minimum = 7
	maximum = 45
Slowest packet = 6277
Flit latency average = 20.0439
	minimum = 7
	maximum = 45
Slowest flit = 6277
Fragmentation average = 0
	minimum = 0
	maximum = 0
Injected packet rate average = 0.010225
	minimum = 0.0076 (at node 5)
	maximum = 0.0132 (at node 11)
Accepted packet rate average = 0.01025
	minimum = 0 (at node 0)
	maximum = 0.164 (at node 11)
Injected flit rate average = 0.010225
	minimum = 0.0076 (at node 5)
	maximum = 0.0132 (at node 11)
Accepted flit rate average= 0.01025
	minimum = 0 (at node 0)
	maximum = 0.164 (at node 11)
Injected packet length average = 1
Accepted packet length average = 1
Total in-flight flits = 4 (4 measured)
latency change    = 0.00930851
throughput change = 0.00304878
Draining all recorded packets ...
Draining remaining packets ...
Time taken is 4031 cycles
Class 0:
Packet latency average = 20.9412
	minimum = 7
	maximum = 45
Network latency average = 20.9412
	minimum = 7
	maximum = 45
Slowest packet = 6369
Flit latency average = 20.9412
	minimum = 7
	maximum = 45
Slowest flit = 6369
Fragmentation average = 0
	minimum = 0
	maximum = 0
Injected packet rate average = 0.011125
	minimum = 0.004 (at node 1)
	maximum = 0.026 (at node 2)
Accepted packet rate average = 0.010625
	minimum = 0 (at node 0)
	maximum = 0.17 (at node 11)
Injected flit rate average = 0.011125
	minimum = 0.004 (at node 1)
	maximum = 0.026 (at node 2)
Accepted flit rate average= 0.010625
	minimum = 0 (at node 0)
	maximum = 0.17 (at node 11)
Injected packet length average = 1
Accepted packet length average = 1
Total in-flight flits = 4 (0 measured)
latency change    = 1
throughput change = 1
Class 0:
Packet latency average = 20.6265
	minimum = 7
	maximum = 45
Network latency average = 20.6265
	minimum = 7
	maximum = 45
Slowest packet = 6369
Flit latency average = 20.6265
	minimum = 7
	maximum = 45
Slowest flit = 6369
Fragmentation average = 0
	minimum = 0
	maximum = 0
Injected packet rate average = 0.0106875
	minimum = 0.006 (at node 3)
	maximum = 0.018 (at node 0)
Accepted packet rate average = 0.010375
	minimum = 0 (at node 0)
	maximum = 0.166 (at node 11)
Injected flit rate average = 0.0106875
	minimum = 0.006 (at node 3)
	maximum = 0.018 (at node 0)
Accepted flit rate average= 0.010375
	minimum = 0 (at node 0)
	maximum = 0.166 (at node 11)
Injected packet length average = 1
Accepted packet length average = 1
Total in-flight flits = 5 (0 measured)
latency change    = 0.0152556
throughput change = 0.0240964
Class 0:
Packet latency average = 19.8977
	minimum = 7
	maximum = 37
Network latency average = 19.8977
	minimum = 7
	maximum = 37
Slowest packet = 6552
Flit latency average = 19.8977
	minimum = 7
	maximum = 37
Slowest flit = 6552
Fragmentation average = 0
	minimum = 0
	maximum = 0
Injected packet rate average = 0.011
	minimum = 0.002 (at node 6)
	maximum = 0.02 (at node 2)
Accepted packet rate average = 0.011
	minimum = 0 (at node 0)
	maximum = 0.176 (at node 11)
Injected flit rate average = 0.011
	minimum = 0.002 (at node 6)
	maximum = 0.02 (at node 2)
Accepted flit rate average= 0.011
	minimum = 0 (at node 0)
	maximum = 0.176 (at node 11)
Injected packet length average = 1
Accepted packet length average = 1
Total in-flight flits = 5 (0 measured)
latency change    = 0.0366262
throughput change = 0.0568182
Warmed up ...Time used is 1500 cycles
Class 0:
Packet latency average = 23.378
	minimum = 7
	maximum = 54
Network latency average = 23.378
	minimum = 7
	maximum = 54
Slowest packet = 6638
Flit latency average = 23.2989
	minimum = 7
	maximum = 54
Slowest flit = 6638
Fragmentation average = 0
	minimum = 0
	maximum = 0
Injected packet rate average = 0.0105
	minimum = 0.002 (at node 0)
	maximum = 0.018 (at node 4)
Accepted packet rate average = 0.010875
	minimum = 0 (at node 0)
	maximum = 0.174 (at node 11)
Injected flit rate average = 0.0105
	minimum = 0.002 (at node 0)
	maximum = 0.018 (at node 4)
Accepted flit rate average= 0.010875
	minimum = 0 (at node 0)
	maximum = 0.174 (at node 11)
Injected packet length average = 1
Accepted packet length average = 1
Total in-flight flits = 2 (2 measured)
latency change    = 0.148871
throughput change = 0.0114943
Class 0:
Packet latency average = 21.5667
	minimum = 7
	maximum = 54
Network latency average = 21.5667
	minimum = 7
	maximum = 54
Slowest packet = 6638
Flit latency average = 21.5806
	minimum = 7
	maximum = 54
Slowest flit = 6638
Fragmentation average = 0
	minimum = 0
	maximum = 0
Injected packet rate average = 0.00975
	minimum = 0.003 (at node 0)
	maximum = 0.014 (at node 1)
Accepted packet rate average = 0.0096875
	minimum = 0 (at node 0)
	maximum = 0.155 (at node 11)
Injected flit rate average = 0.00975
	minimum = 0.003 (at node 0)
	maximum = 0.014 (at node 1)
Accepted flit rate average= 0.0096875
	minimum = 0 (at node 0)
	maximum = 0.155 (at node 11)
Injected packet length average = 1
Accepted packet length average = 1
Total in-flight flits = 6 (6 measured)
latency change    = 0.0839899
throughput change = 0.122581
Class 0:
Packet latency average = 20.9872
	minimum = 7
	maximum = 54
Network latency average = 20.9872
	minimum = 7
	maximum = 54
Slowest packet = 6638
Flit latency average = 21.0083
	minimum = 7
	maximum = 54
Slowest flit = 6638
Fragmentation average = 0
	minimum = 0
	maximum = 0
Injected packet rate average = 0.00995833
	minimum = 0.00466667 (at node 0)
	maximum = 0.0153333 (at node 4)
Accepted packet rate average = 0.01
	minimum = 0 (at node 0)
	maximum = 0.16 (at node 11)
Injected flit rate average = 0.00995833
	minimum = 0.00466667 (at node 0)
	maximum = 0.0153333 (at node 4)
Accepted flit rate average= 0.01
	minimum = 0 (at node 0)
	maximum = 0.16 (at node 11)
Injected packet length average = 1
Accepted packet length average = 1
Total in-flight flits = 4 (4 measured)
latency change    = 0.0276088
throughput change = 0.03125
Class 0:
Packet latency average = 20.776
	minimum = 7
	maximum = 54
Network latency average = 20.776
	minimum = 7
	maximum = 54
Slowest packet = 6638
Flit latency average = 20.7955
	minimum = 7
	maximum = 54
Slowest flit = 6638
Fragmentation average = 0
	minimum = 0
	maximum = 0
Injected packet rate average = 0.00975
	minimum = 0.0065 (at node 0)
	maximum = 0.013 (at node 1)
Accepted packet rate average = 0.00978125
	minimum = 0 (at node 0)
	maximum = 0.1565 (at node 11)
Injected flit rate average = 0.00975
	minimum = 0.0065 (at node 0)
	maximum = 0.013 (at node 1)
Accepted flit rate average= 0.00978125
	minimum = 0 (at node 0)
	maximum = 0.1565 (at node 11)
Injected packet length average = 1
Accepted packet length average = 1
Total in-flight flits = 4 (4 measured)
latency change    = 0.0101685
throughput change = 0.0223642
Class 0:
Packet latency average = 20.9144
	minimum = 7
	maximum = 54
Network latency average = 20.9144
	minimum = 7
	maximum = 54
Slowest packet = 6638
Flit latency average = 20.9279
	minimum = 7
	maximum = 54
Slowest flit = 6638
Fragmentation average = 0
	minimum = 0
	maximum = 0
Injected packet rate average = 0.01
	minimum = 0.008 (at node 0)
	maximum = 0.0136 (at node 4)
Accepted packet rate average = 0.01005
	minimum = 0 (at node 0)
	maximum = 0.1608 (at node 11)
Injected flit rate average = 0.01
	minimum = 0.008 (at node 0)
	maximum = 0.0136 (at node 4)
Accepted flit rate average= 0.01005
	minimum = 0 (at node 0)
	maximum = 0.1608 (at node 11)
Injected packet length average = 1
Accepted packet length average = 1
Total in-flight flits = 3 (3 measured)
latency change    = 0.00661668
throughput change = 0.0267413
Draining all recorded packets ...
Draining remaining packets ...
Time taken is 4035 cycles
Class 0:
Packet latency average = 20.3816
	minimum = 7
	maximum = 37
Network latency average = 20.3816
	minimum = 7
	maximum = 37
Slowest packet = 7022
Flit latency average = 20.3816
	minimum = 7
	maximum = 37
Slowest flit = 7022
Fragmentation average = 0
	minimum = 0
	maximum = 0
Injected packet rate average = 0.009625
	minimum = 0.002 (at node 5)
	maximum = 0.02 (at node 8)
Accepted packet rate average = 0.0095
	minimum = 0 (at node 0)
	maximum = 0.152 (at node 11)
Injected flit rate average = 0.009625
	minimum = 0.002 (at node 5)
	maximum = 0.02 (at node 8)
Accepted flit rate average= 0.0095
	minimum = 0 (at node 0)
	maximum = 0.152 (at node 11)
Injected packet length average = 1
Accepted packet length average = 1
Total in-flight flits = 1 (0 measured)
latency change    = 1
throughput change = 1
Class 0:
Packet latency average = 19.6173
	minimum = 7
	maximum = 37
Network latency average = 19.6173
	minimum = 7
	maximum = 37
Slowest packet = 7022
Flit latency average = 19.6173
	minimum = 7
	maximum = 37
Slowest flit = 7022
Fragmentation average = 0
	minimum = 0
	maximum = 0
Injected packet rate average = 0.0103125
	minimum = 0.006 (at node 6)
	maximum = 0.017 (at node 8)
Accepted packet rate average = 0.010125
	minimum = 0 (at node 0)
	maximum = 0.162 (at node 11)
Injected flit rate average = 0.0103125
	minimum = 0.006 (at node 6)
	maximum = 0.017 (at node 8)
Accepted flit rate average= 0.010125
	minimum = 0 (at node 0)
	maximum = 0.162 (at node 11)
Injected packet length average = 1
Accepted packet length average = 1
Total in-flight flits = 3 (0 measured)
latency change    = 0.0389603
throughput change = 0.0617284
Class 0:
Packet latency average = 19.381
	minimum = 7
	maximum = 43
Network latency average = 19.381
	minimum = 7
	maximum = 43
Slowest packet = 7232
Flit latency average = 19.381
	minimum = 7
	maximum = 43
Slowest flit = 7232
Fragmentation average = 0
	minimum = 0
	maximum = 0
Injected packet rate average = 0.011125
	minimum = 0.004 (at node 2)
	maximum = 0.02 (at node 3)
Accepted packet rate average = 0.0105
	minimum = 0 (at node 0)
	maximum = 0.168 (at node 11)
Injected flit rate average = 0.011125
	minimum = 0.004 (at node 2)
	maximum = 0.02 (at node 3)
Accepted flit rate average= 0.0105
	minimum = 0 (at node 0)
	maximum = 0.168 (at node 11)
Injected packet length average = 1
Accepted packet length average = 1
Total in-flight flits = 8 (0 measured)
latency change    = 0.012194
throughput change = 0.0357143
Warmed up ...Time used is 1500 cycles
Class 0:
Packet latency average = 20.5545
	minimum = 7
	maximum = 60
Network latency average = 20.5545
	minimum = 7
	maximum = 60
Slowest packet = 7306
Flit latency average = 21.0183
	minimum = 7
	maximum = 60
Slowest flit = 7306
Fragmentation average = 0
	minimum = 0
	maximum = 0
Injected packet rate average = 0.013
	minimum = 0.004 (at node 12)
	maximum = 0.024 (at node 15)
Accepted packet rate average = 0.013625
	minimum = 0 (at node 0)
	maximum = 0.218 (at node 11)
Injected flit rate average = 0.013
	minimum = 0.004 (at node 12)
	maximum = 0.024 (at node 15)
Accepted flit rate average= 0.013625
	minimum = 0 (at node 0)
	maximum = 0.218 (at node 11)
Injected packet length average = 1
Accepted packet length average = 1
Total in-flight flits = 3 (3 measured)
latency change    = 0.0570924
throughput change = 0.229358
Class 0:
Packet latency average = 20.2682
	minimum = 7
	maximum = 60
Network latency average = 20.2682
	minimum = 7
	maximum = 60
Slowest packet = 7306
Flit latency average = 20.5508
	minimum = 7
	maximum = 60
Slowest flit = 7306
Fragmentation average = 0
	minimum = 0
	maximum = 0
Injected packet rate average = 0.011375
	minimum = 0.007 (at node 8)
	maximum = 0.017 (at node 7)
Accepted packet rate average = 0.0116875
	minimum = 0 (at node 0)
	maximum = 0.187 (at node 11)
Injected flit rate average = 0.011375
	minimum = 0.007 (at node 8)
	maximum = 0.017 (at node 7)
Accepted flit rate average= 0.0116875
	minimum = 0 (at node 0)
	maximum = 0.187 (at node 11)
Injected packet length average = 1
Accepted packet length average = 1
Total in-flight flits = 3 (3 measured)
latency change    = 0.0141256
throughput change = 0.165775
Class 0:
Packet latency average = 20.0242
	minimum = 7
	maximum = 60
Network latency average = 20.0242
	minimum = 7
	maximum = 60
Slowest packet = 7306
Flit latency average = 20.2383
	minimum = 7
	maximum = 60
Slowest flit = 7306
Fragmentation average = 0
	minimum = 0
	maximum = 0
Injected packet rate average = 0.0104167
	minimum = 0.00733333 (at node 13)
	maximum = 0.014 (at node 15)
Accepted packet rate average = 0.0106667
	minimum = 0 (at node 0)
	maximum = 0.170667 (at node 11)
Injected flit rate average = 0.0104167
	minimum = 0.00733333 (at node 13)
	maximum = 0.014 (at node 15)
Accepted flit rate average= 0.0106667
	minimum = 0 (at node 0)
	maximum = 0.170667 (at node 11)
[...]
Total in-flight flits = 5 (5 measured)
latency change    = 0.0134608
throughput change = 0.019368
Draining all recorded packets ...
Draining remaining packets ...
Time taken is 3528 cycles
Class 0:
Packet latency average = 19.0769
	minimum = 7
	maximum = 33
Network latency average = 19.0769
	minimum = 7
	maximum = 33
Slowest packet = 30677
Flit latency average = 19.0769
	minimum = 7
	maximum = 33
Slowest flit = 30677
Fragmentation average = 0
	minimum = 0
	maximum = 0
Injected packet rate average = 0.008625
	minimum = 0 (at node 15)
	maximum = 0.014 (at node 8)
Accepted packet rate average = 0.008125
	minimum = 0 (at node 0)
	maximum = 0.13 (at node 11)
Injected flit rate average = 0.008625
	minimum = 0 (at node 15)
	maximum = 0.014 (at node 8)
Accepted flit rate average= 0.008125
	minimum = 0 (at node 0)
	maximum = 0.13 (at node 11)
Injected packet length average = 1
Accepted packet length average = 1
Total in-flight flits = 4 (0 measured)
latency change    = 1
throughput change = 1
Class 0:
Packet latency average = 19.5746
	minimum = 7
	maximum = 41
Network latency average = 19.5746
	minimum = 7
	maximum = 41
Slowest packet = 30720
Flit latency average = 19.5746
	minimum = 7
	maximum = 41
Slowest flit = 30720
Fragmentation average = 0
	minimum = 0
	maximum = 0
Injected packet rate average = 0.008625
	minimum = 0.002 (at node 15)
	maximum = 0.013 (at node 7)
Accepted packet rate average = 0.008375
	minimum = 0 (at node 0)
	maximum = 0.134 (at node 11)
Injected flit rate average = 0.008625
	minimum = 0.002 (at node 15)
	maximum = 0.013 (at node 7)
Accepted flit rate average= 0.008375
	minimum = 0 (at node 0)
	maximum = 0.134 (at node 11)
Injected packet length average = 1
Accepted packet length average = 1
Total in-flight flits = 4 (0 measured)
latency change    = 0.025426
throughput change = 0.0298507
Class 0:
Packet latency average = 19.8889
	minimum = 7
	maximum = 32
Network latency average = 19.8889
	minimum = 7
	maximum = 32
Slowest packet = 30762
Flit latency average = 19.8889
	minimum = 7
	maximum = 32
Slowest flit = 30762
Fragmentation average = 0
	minimum = 0
	maximum = 0
Injected packet rate average = 0.007625
	minimum = 0.002 (at node 3)
	maximum = 0.018 (at node 4)
Accepted packet rate average = 0.007875
	minimum = 0 (at node 0)
	maximum = 0.126 (at node 11)
Injected flit rate average = 0.007625
	minimum = 0.002 (at node 3)
	maximum = 0.018 (at node 4)
Accepted flit rate average= 0.007875
	minimum = 0 (at node 0)
	maximum = 0.126 (at node 11)
Injected packet length average = 1
Accepted packet length average = 1
Total in-flight flits = 2 (0 measured)
latency change    = 0.0158009
throughput change = 0.0634921
Warmed up ...Time used is 1500 cycles
Class 0:
Packet latency average = 20.6923
	minimum = 8
	maximum = 37
Network latency average = 20.6923
	minimum = 8
	maximum = 37
Slowest packet = 30882
Flit latency average = 20.85
	minimum = 8
	maximum = 37
Slowest flit = 30882
Fragmentation average = 0
	minimum = 0
	maximum = 0
Injected packet rate average = 0.01
	minimum = 0.002 (at node 9)
	maximum = 0.026 (at node 14)
Accepted packet rate average = 0.01
	minimum = 0 (at node 0)
	maximum = 0.16 (at node 11)
Injected flit rate average = 0.01
	minimum = 0.002 (at node 9)
	maximum = 0.026 (at node 14)
Accepted flit rate average= 0.01
	minimum = 0 (at node 0)
	maximum = 0.16 (at node 11)
Injected packet length average = 1
Accepted packet length average = 1
Total in-flight flits = 2 (2 measured)
latency change    = 0.0388269
throughput change = 0.2125
Class 0:
Packet latency average = 20.2434
	minimum = 7
	maximum = 40
Network latency average = 20.2434
	minimum = 7
	maximum = 40
Slowest packet = 30929
Flit latency average = 20.3312
	minimum = 7
	maximum = 40
Slowest flit = 30929
Fragmentation average = 0
	minimum = 0
	maximum = 0
Injected packet rate average = 0.009625
	minimum = 0.005 (at node 5)
	maximum = 0.02 (at node 14)
Accepted packet rate average = 0.009625
	minimum = 0 (at node 0)
	maximum = 0.154 (at node 11)
Injected flit rate average = 0.009625
	minimum = 0.005 (at node 5)
	maximum = 0.02 (at node 14)
Accepted flit rate average= 0.009625
	minimum = 0 (at node 0)
	maximum = 0.154 (at node 11)
Injected packet length average = 1
Accepted packet length average = 1
Total in-flight flits = 2 (2 measured)
latency change    = 0.0221744
throughput change = 0.038961
Class 0:
Packet latency average = 20.1982
	minimum = 7
	maximum = 40
Network latency average = 20.1982
	minimum = 7
	maximum = 40
Slowest packet = 30929
Flit latency average = 20.2576
	minimum = 7
	maximum = 40
Slowest flit = 30929
Fragmentation average = 0
	minimum = 0
	maximum = 0
Injected packet rate average = 0.00954167
	minimum = 0.006 (at node 3)
	maximum = 0.0153333 (at node 14)
Accepted packet rate average = 0.00954167
	minimum = 0 (at node 0)
	maximum = 0.152667 (at node 11)
Injected flit rate average = 0.00954167
	minimum = 0.006 (at node 3)
	maximum = 0.0153333 (at node 14)
Accepted flit rate average= 0.00954167
	minimum = 0 (at node 0)
	maximum = 0.152667 (at node 11)
Injected packet length average = 1
Accepted packet length average = 1
Total in-flight flits = 2 (2 measured)
latency change    = 0.00223699
throughput change = 0.00873362
Class 0:
Packet latency average = 20.3377
	minimum = 7
	maximum = 40
Network latency average = 20.3377
	minimum = 7
	maximum = 40
Slowest packet = 30929
Flit latency average = 20.3816
	minimum = 7
	maximum = 40
Slowest flit = 30929
Fragmentation average = 0
	minimum = 0
	maximum = 0
Injected packet rate average = 0.00953125
	minimum = 0.006 (at node 3)
	maximum = 0.0145 (at node 2)
Accepted packet rate average = 0.0095
	minimum = 0 (at node 0)
	maximum = 0.152 (at node 11)
Injected flit rate average = 0.00953125
	minimum = 0.006 (at node 3)
	maximum = 0.0145 (at node 2)
Accepted flit rate average= 0.0095
	minimum = 0 (at node 0)
	maximum = 0.152 (at node 11)
Injected packet length average = 1
Accepted packet length average = 1
Total in-flight flits = 3 (3 measured)
latency change    = 0.00685968
throughput change = 0.00438596
Draining all recorded packets ...
Draining remaining packets ...
Time taken is 3545 cycles
Class 0:
Packet latency average = 18.9211
	minimum = 7
	maximum = 33
Network latency average = 18.9211
	minimum = 7
	maximum = 33
Slowest packet = 31149
Flit latency average = 18.9211
	minimum = 7
	maximum = 33
Slowest flit = 31149
Fragmentation average = 0
	minimum = 0
	maximum = 0
Injected packet rate average = 0.0095
	minimum = 0.004 (at node 0)
	maximum = 0.018 (at node 8)
Accepted packet rate average = 0.0095
	minimum = 0 (at node 0)
	maximum = 0.152 (at node 11)
Injected flit rate average = 0.0095
	minimum = 0.004 (at node 0)
	maximum = 0.018 (at node 8)
Accepted flit rate average= 0.0095
	minimum = 0 (at node 0)
	maximum = 0.152 (at node 11)
Injected packet length average = 1
Accepted packet length average = 1
Total in-flight flits = 0 (0 measured)
latency change    = 1
throughput change = 1
Class 0:
Packet latency average = 20.0683
	minimum = 7
	maximum = 41
Network latency average = 20.0683
	minimum = 7
	maximum = 41
Slowest packet = 31277
Flit latency average = 20.0683
	minimum = 7
	maximum = 41
Slowest flit = 31277
Fragmentation average = 0
	minimum = 0
	maximum = 0
Injected packet rate average = 0.0101875
	minimum = 0.006 (at node 5)
	maximum = 0.016 (at node 6)
Accepted packet rate average = 0.0100625
	minimum = 0 (at node 0)
	maximum = 0.161 (at node 11)
Injected flit rate average = 0.0101875
	minimum = 0.006 (at node 5)
	maximum = 0.016 (at node 6)
Accepted flit rate average= 0.0100625
	minimum = 0 (at node 0)
	maximum = 0.161 (at node 11)
Injected packet length average = 1
Accepted packet length average = 1
Total in-flight flits = 2 (0 measured)
latency change    = 0.0571682
throughput change = 0.0559006
Class 0:
Packet latency average = 20.5217
	minimum = 7
	maximum = 40
Network latency average = 20.5217
	minimum = 7
	maximum = 40
Slowest packet = 31355
Flit latency average = 20.5217
	minimum = 7
	maximum = 40
Slowest flit = 31355
Fragmentation average = 0
	minimum = 0
	maximum = 0
Injected packet rate average = 0.01175
	minimum = 0.004 (at node 2)
	maximum = 0.022 (at node 10)
Accepted packet rate average = 0.0115
	minimum = 0 (at node 0)
	maximum = 0.184 (at node 11)
Injected flit rate average = 0.01175
	minimum = 0.004 (at node 2)
	maximum = 0.022 (at node 10)
Accepted flit rate average= 0.0115
	minimum = 0 (at node 0)
	maximum = 0.184 (at node 11)
Injected packet length average = 1
Accepted packet length average = 1
Total in-flight flits = 4 (0 measured)
latency change    = 0.0220944
throughput change = 0.125
Warmed up ...Time used is 1500 cycles
Class 0:
Packet latency average = 20.9706
	minimum = 7
	maximum = 41
Network latency average = 20.9706
	minimum = 7
	maximum = 41
Slowest packet = 31435
Flit latency average = 20.8333
	minimum = 7
	maximum = 41
Slowest flit = 31435
Fragmentation average = 0
	minimum = 0
	maximum = 0
Injected packet rate average = 0.0085
	minimum = 0.002 (at node 14)
	maximum = 0.016 (at node 3)
Accepted packet rate average = 0.009
	minimum = 0 (at node 0)
	maximum = 0.144 (at node 11)
Injected flit rate average = 0.0085
	minimum = 0.002 (at node 14)
	maximum = 0.016 (at node 3)
Accepted flit rate average= 0.009
	minimum = 0 (at node 0)
	maximum = 0.144 (at node 11)
Injected packet length average = 1
Accepted packet length average = 1
Total in-flight flits = 0 (0 measured)
latency change    = 0.0214037
throughput change = 0.277778
Class 0:
Packet latency average = 20.2418
	minimum = 7
	maximum = 41
Network latency average = 20.2418
	minimum = 7
	maximum = 41
Slowest packet = 31435
Flit latency average = 20.1975
	minimum = 7
	maximum = 41
Slowest flit = 31435
Fragmentation average = 0
	minimum = 0
	maximum = 0
Injected packet rate average = 0.009625
	minimum = 0.004 (at node 12)
	maximum = 0.023 (at node 3)
Accepted packet rate average = 0.0098125
	minimum = 0 (at node 0)
	maximum = 0.157 (at node 11)
Injected flit rate average = 0.009625
	minimum = 0.004 (at node 12)
	maximum = 0.023 (at node 3)
Accepted flit rate average= 0.0098125
	minimum = 0 (at node 0)
	maximum = 0.157 (at node 11)
Injected packet length average = 1
Accepted packet length average = 1
Total in-flight flits = 1 (1 measured)
latency change    = 0.0360026
throughput change = 0.0828025
Class 0:
Packet latency average = 20.103
	minimum = 7
	maximum = 41
Network latency average = 20.103
	minimum = 7
	maximum = 41
Slowest packet = 31435
Flit latency average = 20.0759
	minimum = 7
	maximum = 41
Slowest flit = 31435
Fragmentation average = 0
	minimum = 0
	maximum = 0
Injected packet rate average = 0.00983333
	minimum = 0.006 (at node 9)
	maximum = 0.0186667 (at node 3)
Accepted packet rate average = 0.009875
	minimum = 0 (at node 0)
	maximum = 0.158 (at node 11)
Injected flit rate average = 0.00983333
	minimum = 0.006 (at node 9)
	maximum = 0.0186667 (at node 3)
Accepted flit rate average= 0.009875
	minimum = 0 (at node 0)
	maximum = 0.158 (at node 11)
Injected packet length average = 1
Accepted packet length average = 1
Total in-flight flits = 3 (3 measured)
latency change    = 0.00690572
throughput change = 0.00632911
Class 0:
Packet latency average = 19.9123
	minimum = 7
	maximum = 41
Network latency average = 19.9123
	minimum = 7
	maximum = 41
Slowest packet = 31435
Flit latency average = 19.8942
	minimum = 7
	maximum = 41
Slowest flit = 31435
Fragmentation average = 0
	minimum = 0
	maximum = 0
Injected packet rate average = 0.00965625
	minimum = 0.0055 (at node 12)
	maximum = 0.0175 (at node 3)
Accepted packet rate average = 0.00975
	minimum = 0 (at node 0)
	maximum = 0.156 (at node 11)
Injected flit rate average = 0.00965625
	minimum = 0.0055 (at node 12)
	maximum = 0.0175 (at node 3)
Accepted flit rate average= 0.00975
	minimum = 0 (at node 0)
	maximum = 0.156 (at node 11)
Injected packet length average = 1
Accepted packet length average = 1
Total in-flight flits = 1 (1 measured)
latency change    = 0.0095753
throughput change = 0.0128205
Class 0:
Packet latency average = 20.1018
	minimum = 7
	maximum = 41
Network latency average = 20.1018
	minimum = 7
	maximum = 41
Slowest packet = 31435
Flit latency average = 20.0853
	minimum = 7
	maximum = 41
Slowest flit = 31435
Fragmentation average = 0
	minimum = 0
	maximum = 0
Injected packet rate average = 0.0097
	minimum = 0.0064 (at node 12)
	maximum = 0.0156 (at node 3)
Accepted packet rate average = 0.009675
	minimum = 0 (at node 0)
	maximum = 0.1548 (at node 11)
Injected flit rate average = 0.0097
	minimum = 0.0064 (at node 12)
	maximum = 0.0156 (at node 3)
Accepted flit rate average= 0.009675
	minimum = 0 (at node 0)
	maximum = 0.1548 (at node 11)
Injected packet length average = 1
Accepted packet length average = 1
Total in-flight flits = 5 (5 measured)
latency change    = 0.00942651
throughput change = 0.00775194
Draining all recorded packets ...
Draining remaining packets ...
Time taken is 4043 cycles
Class 0:
Packet latency average = 20.1029
	minimum = 7
	maximum = 36
Network latency average = 20.1029
	minimum = 7
	maximum = 36
Slowest packet = 31819
Flit latency average = 20.1029
	minimum = 7
	maximum = 36
Slowest flit = 31819
Fragmentation average = 0
	minimum = 0
	maximum = 0
Injected packet rate average = 0.00875
	minimum = 0.002 (at node 7)
	maximum = 0.018 (at node 5)
Accepted packet rate average = 0.0085
	minimum = 0 (at node 0)
	maximum = 0.136 (at node 11)
Injected flit rate average = 0.00875
	minimum = 0.002 (at node 7)
	maximum = 0.018 (at node 5)
Accepted flit rate average= 0.0085
	minimum = 0 (at node 0)
	maximum = 0.136 (at node 11)
Injected packet length average = 1
Accepted packet length average = 1
Total in-flight flits = 2 (0 measured)
latency change    = 1
throughput change = 1
Class 0:
Packet latency average = 20.1295
	minimum = 7
	maximum = 36
Network latency average = 20.1295
	minimum = 7
	maximum = 36
Slowest packet = 31819
Flit latency average = 20.1295
	minimum = 7
	maximum = 36
Slowest flit = 31819
Fragmentation average = 0
	minimum = 0
	maximum = 0
Injected packet rate average = 0.00875
	minimum = 0.002 (at node 1)
	maximum = 0.014 (at node 5)
Accepted packet rate average = 0.0086875
	minimum = 0 (at node 0)
	maximum = 0.139 (at node 11)
Injected flit rate average = 0.00875
	minimum = 0.002 (at node 1)
	maximum = 0.014 (at node 5)
Accepted flit rate average= 0.0086875
	minimum = 0 (at node 0)
	maximum = 0.139 (at node 11)
Injected packet length average = 1
Accepted packet length average = 1
Total in-flight flits = 1 (0 measured)
latency change    = 0.00131922
throughput change = 0.0215827
Class 0:
Packet latency average = 19.3857
	minimum = 7
	maximum = 33
Network latency average = 19.3857
	minimum = 7
	maximum = 33
Slowest packet = 31923
Flit latency average = 19.3857
	minimum = 7
	maximum = 33
Slowest flit = 31923
Fragmentation average = 0
	minimum = 0
	maximum = 0
Injected packet rate average = 0.009
	minimum = 0.002 (at node 0)
	maximum = 0.018 (at node 10)
Accepted packet rate average = 0.00875
	minimum = 0 (at node 0)
	maximum = 0.14 (at node 11)
Injected flit rate average = 0.009
	minimum = 0.002 (at node 0)
	maximum = 0.018 (at node 10)
Accepted flit rate average= 0.00875
	minimum = 0 (at node 0)
	maximum = 0.14 (at node 11)
Injected packet length average = 1
Accepted packet length average = 1
Total in-flight flits = 3 (0 measured)
latency change    = 0.0383675
throughput change = 0.00714286
Warmed up ...Time used is 1500 cycles
Class 0:
Packet latency average = 20.7945
	minimum = 7
	maximum = 36
Network latency average = 20.7945
	minimum = 7
	maximum = 36
Slowest packet = 31994
Flit latency average = 20.8421
	minimum = 7
	maximum = 36
Slowest flit = 31994
Fragmentation average = 0
	minimum = 0
	maximum = 0
Injected packet rate average = 0.009625
	minimum = 0.004 (at node 3)
	maximum = 0.016 (at node 10)
Accepted packet rate average = 0.0095
	minimum = 0 (at node 0)
	maximum = 0.152 (at node 11)
Injected flit rate average = 0.009625
	minimum = 0.004 (at node 3)
	maximum = 0.016 (at node 10)
Accepted flit rate average= 0.0095
	minimum = 0 (at node 0)
	maximum = 0.152 (at node 11)
Injected packet length average = 1
Accepted packet length average = 1
Total in-flight flits = 4 (4 measured)
latency change    = 0.0677489
throughput change = 0.0789474
Class 0:
Packet latency average = 20.5733
	minimum = 7
	maximum = 42
Network latency average = 20.5733
	minimum = 7
	maximum = 42
Slowest packet = 32088
Flit latency average = 20.6013
	minimum = 7
	maximum = 42
Slowest flit = 32088
Fragmentation average = 0
	minimum = 0
	maximum = 0
Injected packet rate average = 0.009625
	minimum = 0.005 (at node 13)
	maximum = 0.013 (at node 10)
Accepted packet rate average = 0.0095625
	minimum = 0 (at node 0)
	maximum = 0.153 (at node 11)
Injected flit rate average = 0.009625
	minimum = 0.005 (at node 13)
	maximum = 0.013 (at node 10)
Accepted flit rate average= 0.0095625
	minimum = 0 (at node 0)
	maximum = 0.153 (at node 11)
Injected packet length average = 1
Accepted packet length average = 1
Total in-flight flits = 4 (4 measured)
latency change    = 0.0107512
throughput change = 0.00653595
Class 0:
Packet latency average = 20.2044
	minimum = 7
	maximum = 42
Network latency average = 20.2044
	minimum = 7
	maximum = 42
Slowest packet = 32088
Flit latency average = 20.2281
	minimum = 7
	maximum = 42
Slowest flit = 32088
Fragmentation average = 0
	minimum = 0
	maximum = 0
Injected packet rate average = 0.009625
	minimum = 0.00666667 (at node 11)
	maximum = 0.0126667 (at node 10)
Accepted packet rate average = 0.0095
	minimum = 0 (at node 0)
	maximum = 0.152 (at node 11)
Injected flit rate average = 0.009625
	minimum = 0.00666667 (at node 11)
	maximum = 0.0126667 (at node 10)
Accepted flit rate average= 0.0095
	minimum = 0 (at node 0)
	maximum = 0.152 (at node 11)
Injected packet length average = 1
Accepted packet length average = 1
Total in-flight flits = 6 (6 measured)
latency change    = 0.0182578
throughput change = 0.00657895
Class 0:
Packet latency average = 20.4662
	minimum = 7
	maximum = 51
Network latency average = 20.4662
	minimum = 7
	maximum = 51
Slowest packet = 32256
Flit latency average = 20.4809
	minimum = 7
	maximum = 51
Slowest flit = 32256
Fragmentation average = 0
	minimum = 0
	maximum = 0
Injected packet rate average = 0.00984375
	minimum = 0.0065 (at node 1)
	maximum = 0.013 (at node 8)
Accepted packet rate average = 0.0098125
	minimum = 0 (at node 0)
	maximum = 0.157 (at node 11)
Injected flit rate average = 0.00984375
	minimum = 0.0065 (at node 1)
	maximum = 0.013 (at node 8)
Accepted flit rate average= 0.0098125
	minimum = 0 (at node 0)
	maximum = 0.157 (at node 11)
Injected packet length average = 1
Accepted packet length average = 1
Total in-flight flits = 4 (4 measured)
latency change    = 0.0127915
throughput change = 0.0318471
Draining all recorded packets ...
Draining remaining packets ...
Time taken is 3560 cycles
====== Overall Traffic Statistics ======
====== Traffic class 0 ======
Packet latency average = 20.3731 (50 samples)
	minimum = 7 (50 samples)
	maximum = 45.78 (50 samples)
Network latency average = 20.3731 (50 samples)
	minimum = 7 (50 samples)
	maximum = 45.78 (50 samples)
Flit latency average = 20.3941 (50 samples)
	minimum = 7 (50 samples)
	maximum = 45.8 (50 samples)
Fragmentation average = 0 (50 samples)
	minimum = 0 (50 samples)
	maximum = 0 (50 samples)
Injected packet rate average = 0.00999905 (50 samples)
	minimum = 0.00671724 (50 samples)
	maximum = 0.0136677 (50 samples)
Accepted packet rate average = 0.0100088 (50 samples)
	minimum = 0 (50 samples)
	maximum = 0.160141 (50 samples)
Injected flit rate average = 0.00999905 (50 samples)
	minimum = 0.00671724 (50 samples)
	maximum = 0.0136677 (50 samples)
Accepted flit rate average = 0.0100088 (50 samples)
	minimum = 0 (50 samples)
	maximum = 0.160141 (50 samples)
Injected packet size average = 1 (50 samples)
Accepted packet size average = 1 (50 samples)
Hops average = 3.50367 (50 samples)
Total run time 1.27277
