BEGIN Configuration File: /tmp/tmpntgishz5.cfg
topology = mesh;
k = 4;
n = 2;
routing_function = gnn_port_score_route_4x4_v4;
num_vcs = 4;
vc_buf_size = 4;
wait_for_tail_credit = 1;
vc_allocator = islip;
sw_allocator = islip;
alloc_iters = 1;
credit_delay = 2;
routing_delay = 1;
vc_alloc_delay = 1;
sw_alloc_delay = 1;
input_speedup = 2;
output_speedup = 1;
internal_speedup = 1.0;
traffic = uniform;
packet_size = 1;
sim_type = latency;
injection_rate = 0.05;
warmup_periods = 3;
sample_period = 500;
sim_count = 50;
seed = 0;
link_failures = 0;
fail_seed = 101;

END Configuration File: /tmp/tmpntgishz5.cfg
Class 0:
Packet latency average = 20.1684
	minimum = 7
	maximum = 55
Network latency average = 20.1684
	minimum = 7
	maximum = 55
Slowest packet = 251
Flit latency average = 20.1684
	minimum = 7
	maximum = 55
Slowest flit = 251
Fragmentation average = 0
	minimum = 0
	maximum = 0
Injected packet rate average = 0.049625
	minimum = 0.032 (at node 8)
	maximum = 0.064 (at node 13)
Accepted packet rate average = 0.04825
	minimum = 0.024 (at node 11)
	maximum = 0.064 (at node 2)
Injected flit rate average = 0.049625
	minimum = 0.032 (at node 8)
	maximum = 0.064 (at node 13)
Accepted flit rate average= 0.04825
	minimum = 0.024 (at node 11)
	maximum = 0.064 (at node 2)
Injected packet length average = 1
Accepted packet length average = 1
Total in-flight flits = 11 (0 measured)
latency change    = 1
throughput change = 1
Class 0:
Packet latency average = 20.0467
	minimum = 7
	maximum = 55
Network latency average = 20.0467
	minimum = 7
	maximum = 55
Slowest packet = 251
Flit latency average = 20.0467
	minimum = 7
	maximum = 55
Slowest flit = 251
Fragmentation average = 0
	minimum = 0
	maximum = 0
Injected packet rate average = 0.048875
	minimum = 0.041 (at node 5)
	maximum = 0.054 (at node 1)
Accepted packet rate average = 0.0481875
	minimum = 0.038 (at node 11)
	maximum = 0.054 (at node 0)
Injected flit rate average = 0.048875
	minimum = 0.041 (at node 5)
	maximum = 0.054 (at node 1)
Accepted flit rate average= 0.0481875
	minimum = 0.038 (at node 11)
	maximum = 0.054 (at node 0)
Injected packet length average = 1
Accepted packet length average = 1
Total in-flight flits = 11 (0 measured)
latency change    = 0.00607089
throughput change = 0.00129702
Class 0:
Packet latency average = 20.5231
	minimum = 7
	maximum = 48
Network latency average = 20.5231
	minimum = 7
	maximum = 48
Slowest packet = 1140
Flit latency average = 20.5231
	minimum = 7
	maximum = 48
Slowest flit = 1140
Fragmentation average = 0
	minimum = 0
	maximum = 0
Injected packet rate average = 0.05025
	minimum = 0.032 (at node 11)
	maximum = 0.064 (at node 12)
Accepted packet rate average = 0.04875
	minimum = 0.032 (at node 0)
	maximum = 0.064 (at node 7)
Injected flit rate average = 0.05025
	minimum = 0.032 (at node 11)
	maximum = 0.064 (at node 12)
Accepted flit rate average= 0.04875
	minimum = 0.032 (at node 0)
	maximum = 0.064 (at node 7)
Injected packet length average = 1
Accepted packet length average = 1
Total in-flight flits = 23 (0 measured)
latency change    = 0.0232121
throughput change = 0.0115385
Warmed up ...Time used is 1500 cycles
Class 0:
Packet latency average = 19.8245
	minimum = 7
	maximum = 42
Network latency average = 19.8245
	minimum = 7
	maximum = 42
Slowest packet = 1304
Flit latency average = 19.9098
	minimum = 7
	maximum = 42
Slowest flit = 1304
Fragmentation average = 0
	minimum = 0
	maximum = 0
Injected packet rate average = 0.0485
	minimum = 0.036 (at node 9)
	maximum = 0.066 (at node 13)
Accepted packet rate average = 0.049875
	minimum = 0.03 (at node 2)
	maximum = 0.07 (at node 11)
Injected flit rate average = 0.0485
	minimum = 0.036 (at node 9)
	maximum = 0.066 (at node 13)
Accepted flit rate average= 0.049875
	minimum = 0.03 (at node 2)
	maximum = 0.07 (at node 11)
Injected packet length average = 1
Accepted packet length average = 1
Total in-flight flits = 12 (12 measured)
latency change    = 0.0352397
throughput change = 0.0225564
Class 0:
Packet latency average = 19.7277
	minimum = 7
	maximum = 45
Network latency average = 19.7277
	minimum = 7
	maximum = 45
Slowest packet = 1733
Flit latency average = 19.772
	minimum = 7
	maximum = 45
Slowest flit = 1733
Fragmentation average = 0
	minimum = 0
	maximum = 0
Injected packet rate average = 0.0505625
	minimum = 0.04 (at node 9)
	maximum = 0.064 (at node 13)
Accepted packet rate average = 0.05125
	minimum = 0.036 (at node 2)
	maximum = 0.064 (at node 8)
Injected flit rate average = 0.0505625
	minimum = 0.04 (at node 9)
	maximum = 0.064 (at node 13)
Accepted flit rate average= 0.05125
	minimum = 0.036 (at node 2)
	maximum = 0.064 (at node 8)
Injected packet length average = 1
Accepted packet length average = 1
Total in-flight flits = 12 (12 measured)
latency change    = 0.00490371
throughput change = 0.0268293
Class 0:
Packet latency average = 19.9522
	minimum = 7
	maximum = 45
Network latency average = 19.9522
	minimum = 7
	maximum = 45
Slowest packet = 1733
Flit latency average = 19.9778
	minimum = 7
	maximum = 45
Slowest flit = 1733
Fragmentation average = 0
	minimum = 0
	maximum = 0
Injected packet rate average = 0.0507083
	minimum = 0.044 (at node 9)
	maximum = 0.0566667 (at node 11)
Accepted packet rate average = 0.0506667
	minimum = 0.04 (at node 4)
	maximum = 0.0593333 (at node 11)
Injected flit rate average = 0.0507083
	minimum = 0.044 (at node 9)
	maximum = 0.0566667 (at node 11)
Accepted flit rate average= 0.0506667
	minimum = 0.04 (at node 4)
	maximum = 0.0593333 (at node 11)
Injected packet length average = 1
Accepted packet length average = 1
Total in-flight flits = 24 (24 measured)
latency change    = 0.0112515
throughput change = 0.0115132
Draining all recorded packets ...
Draining remaining packets ...
Time taken is 3052 cycles
Class 0:
Packet latency average = 20.6755
	minimum = 7
	maximum = 46
Network latency average = 20.6755
	minimum = 7
	maximum = 46
Slowest packet = 2606
Flit latency average = 20.6755
	minimum = 7
	maximum = 46
Slowest flit = 2606
Fragmentation average = 0
	minimum = 0
	maximum = 0
Injected packet rate average = 0.05025
	minimum = 0.042 (at node 0)
	maximum = 0.068 (at node 15)
Accepted packet rate average = 0.047
	minimum = 0.024 (at node 15)
	maximum = 0.062 (at node 6)
Injected flit rate average = 0.05025
	minimum = 0.042 (at node 0)
	maximum = 0.068 (at node 15)
Accepted flit rate average= 0.047
	minimum = 0.024 (at node 15)
	maximum = 0.062 (at node 6)
Injected packet length average = 1
Accepted packet length average = 1
Total in-flight flits = 26 (0 measured)
latency change    = 1
throughput change = 1
Class 0:
Packet latency average = 20.534
	minimum = 7
	maximum = 46
Network latency average = 20.534
	minimum = 7
	maximum = 46
Slowest packet = 2606
Flit latency average = 20.534
	minimum = 7
	maximum = 46
Slowest flit = 2606
Fragmentation average = 0
	minimum = 0
	maximum = 0
Injected packet rate average = 0.048
	minimum = 0.035 (at node 0)
	maximum = 0.059 (at node 15)
Accepted packet rate average = 0.0468125
	minimum = 0.034 (at node 15)
	maximum = 0.059 (at node 2)
Injected flit rate average = 0.048
	minimum = 0.035 (at node 0)
	maximum = 0.059 (at node 15)
Accepted flit rate average= 0.0468125
	minimum = 0.034 (at node 15)
	maximum = 0.059 (at node 2)
Injected packet length average = 1
Accepted packet length average = 1
Total in-flight flits = 19 (0 measured)
latency change    = 0.00689034
throughput change = 0.00400534
Class 0:
Packet latency average = 19.7166
	minimum = 7
	maximum = 44
Network latency average = 19.7166
	minimum = 7
	maximum = 44
Slowest packet = 3186
Flit latency average = 19.7166
	minimum = 7
	maximum = 44
Slowest flit = 3186
Fragmentation average = 0
	minimum = 0
	maximum = 0
Injected packet rate average = 0.0465
	minimum = 0.036 (at node 6)
	maximum = 0.06 (at node 10)
Accepted packet rate average = 0.04675
	minimum = 0.034 (at node 7)
	maximum = 0.062 (at node 6)
Injected flit rate average = 0.0465
	minimum = 0.036 (at node 6)
	maximum = 0.06 (at node 10)
Accepted flit rate average= 0.04675
	minimum = 0.034 (at node 7)
	maximum = 0.062 (at node 6)
Injected packet length average = 1
Accepted packet length average = 1
Total in-flight flits = 17 (0 measured)
latency change    = 0.0414609
throughput change = 0.0013369
Warmed up ...Time used is 1500 cycles
Class 0:
Packet latency average = 20.0054
	minimum = 7
	maximum = 43
Network latency average = 20.0054
	minimum = 7
	maximum = 43
Slowest packet = 3745
Flit latency average = 20.1085
	minimum = 7
	maximum = 43
Slowest flit = 3745
Fragmentation average = 0
	minimum = 0
	maximum = 0
Injected packet rate average = 0.04875
	minimum = 0.034 (at node 0)
	maximum = 0.064 (at node 9)
Accepted packet rate average = 0.048375
	minimum = 0.038 (at node 9)
	maximum = 0.06 (at node 3)
Injected flit rate average = 0.04875
	minimum = 0.034 (at node 0)
	maximum = 0.064 (at node 9)
Accepted flit rate average= 0.048375
	minimum = 0.038 (at node 9)
	maximum = 0.06 (at node 3)
Injected packet length average = 1
Accepted packet length average = 1
Total in-flight flits = 20 (20 measured)
latency change    = 0.0144375
throughput change = 0.0335917
Class 0:
Packet latency average = 20.1372
	minimum = 7
	maximum = 43
Network latency average = 20.1372
	minimum = 7
	maximum = 43
Slowest packet = 3745
Flit latency average = 20.1858
	minimum = 7
	maximum = 43
Slowest flit = 3745
Fragmentation average = 0
	minimum = 0
	maximum = 0
Injected packet rate average = 0.048875
	minimum = 0.04 (at node 8)
	maximum = 0.058 (at node 15)
Accepted packet rate average = 0.0484375
	minimum = 0.041 (at node 2)
	maximum = 0.059 (at node 7)
Injected flit rate average = 0.048875
	minimum = 0.04 (at node 8)
	maximum = 0.058 (at node 15)
Accepted flit rate average= 0.0484375
	minimum = 0.041 (at node 2)
	maximum = 0.059 (at node 7)
Injected packet length average = 1
Accepted packet length average = 1
Total in-flight flits = 24 (24 measured)
latency change    = 0.00654499
throughput change = 0.00129032
Class 0:
Packet latency average = 20.3287
	minimum = 7
	maximum = 45
Network latency average = 20.3287
	minimum = 7
	maximum = 45
Slowest packet = 4422
Flit latency average = 20.3581
	minimum = 7
	maximum = 45
Slowest flit = 4422
Fragmentation average = 0
	minimum = 0
	maximum = 0
Injected packet rate average = 0.048875
	minimum = 0.0393333 (at node 6)
	maximum = 0.0593333 (at node 15)
Accepted packet rate average = 0.04875
	minimum = 0.0426667 (at node 0)
	maximum = 0.058 (at node 7)
Injected flit rate average = 0.048875
	minimum = 0.0393333 (at node 6)
	maximum = 0.0593333 (at node 15)
Accepted flit rate average= 0.04875
	minimum = 0.0426667 (at node 0)
	maximum = 0.058 (at node 7)
Injected packet length average = 1
Accepted packet length average = 1
Total in-flight flits = 20 (20 measured)
latency change    = 0.0094204
throughput change = 0.00641026
Draining all recorded packets ...
Draining remaining packets ...
Time taken is 3066 cycles
Class 0:
Packet latency average = 20.0953
	minimum = 7
	maximum = 44
Network latency average = 20.0953
	minimum = 7
	maximum = 44
Slowest packet = 4809
Flit latency average = 20.0953
	minimum = 7
	maximum = 44
Slowest flit = 4809
Fragmentation average = 0
	minimum = 0
	maximum = 0
Injected packet rate average = 0.0555
	minimum = 0.04 (at node 8)
	maximum = 0.074 (at node 3)
Accepted packet rate average = 0.05375
	minimum = 0.036 (at node 6)
	maximum = 0.07 (at node 14)
Injected flit rate average = 0.0555
	minimum = 0.04 (at node 8)
	maximum = 0.074 (at node 3)
Accepted flit rate average= 0.05375
	minimum = 0.036 (at node 6)
	maximum = 0.07 (at node 14)
Injected packet length average = 1
Accepted packet length average = 1
Total in-flight flits = 14 (0 measured)
latency change    = 1
throughput change = 1
Class 0:
Packet latency average = 20.0645
	minimum = 7
	maximum = 47
Network latency average = 20.0645
	minimum = 7
	maximum = 47
Slowest packet = 5523
Flit latency average = 20.0645
	minimum = 7
	maximum = 47
Slowest flit = 5523
Fragmentation average = 0
	minimum = 0
	maximum = 0
Injected packet rate average = 0.051125
	minimum = 0.038 (at node 4)
	maximum = 0.064 (at node 13)
Accepted packet rate average = 0.050375
	minimum = 0.039 (at node 2)
	maximum = 0.061 (at node 7)
Injected flit rate average = 0.051125
	minimum = 0.038 (at node 4)
	maximum = 0.064 (at node 13)
Accepted flit rate average= 0.050375
	minimum = 0.039 (at node 2)
	maximum = 0.061 (at node 7)
Injected packet length average = 1
Accepted packet length average = 1
Total in-flight flits = 12 (0 measured)
latency change    = 0.00153668
throughput change = 0.0669975
Class 0:
Packet latency average = 19.5306
	minimum = 7
	maximum = 41
Network latency average = 19.5306
	minimum = 7
	maximum = 41
Slowest packet = 5614
Flit latency average = 19.5306
	minimum = 7
	maximum = 41
Slowest flit = 5614
Fragmentation average = 0
	minimum = 0
	maximum = 0
Injected packet rate average = 0.052
	minimum = 0.036 (at node 12)
	maximum = 0.068 (at node 6)
Accepted packet rate average = 0.051125
	minimum = 0.026 (at node 13)
	maximum = 0.064 (at node 3)
Injected flit rate average = 0.052
	minimum = 0.036 (at node 12)
	maximum = 0.068 (at node 6)
Accepted flit rate average= 0.051125
	minimum = 0.026 (at node 13)
	maximum = 0.064 (at node 3)
Injected packet length average = 1
Accepted packet length average = 1
Total in-flight flits = 19 (0 measured)
latency change    = 0.0273394
throughput change = 0.0146699
Warmed up ...Time used is 1500 cycles
Class 0:
Packet latency average = 20.442
	minimum = 7
	maximum = 45
Network latency average = 20.442
	minimum = 7
	maximum = 45
Slowest packet = 6341
Flit latency average = 20.4692
	minimum = 7
	maximum = 49
Slowest flit = 5994
Fragmentation average = 0
	minimum = 0
	maximum = 0
Injected packet rate average = 0.04825
	minimum = 0.036 (at node 10)
	maximum = 0.06 (at node 3)
Accepted packet rate average = 0.04875
	minimum = 0.036 (at node 3)
	maximum = 0.064 (at node 8)
Injected flit rate average = 0.04825
	minimum = 0.036 (at node 10)
	maximum = 0.06 (at node 3)
Accepted flit rate average= 0.04875
	minimum = 0.036 (at node 3)
	maximum = 0.064 (at node 8)
Injected packet length average = 1
Accepted packet length average = 1
Total in-flight flits = 15 (15 measured)
latency change    = 0.0445888
throughput change = 0.0487179
Class 0:
Packet latency average = 20.2861
	minimum = 7
	maximum = 45
Network latency average = 20.2861
	minimum = 7
	maximum = 45
Slowest packet = 6341
Flit latency average = 20.3031
	minimum = 7
	maximum = 49
Slowest flit = 5994
Fragmentation average = 0
	minimum = 0
	maximum = 0
Injected packet rate average = 0.049875
	minimum = 0.041 (at node 10)
	maximum = 0.059 (at node 4)
Accepted packet rate average = 0.0496875
	minimum = 0.041 (at node 3)
	maximum = 0.063 (at node 8)
Injected flit rate average = 0.049875
	minimum = 0.041 (at node 10)
	maximum = 0.059 (at node 4)
Accepted flit rate average= 0.0496875
	minimum = 0.041 (at node 3)
	maximum = 0.063 (at node 8)
Injected packet length average = 1
Accepted packet length average = 1
Total in-flight flits = 22 (22 measured)
latency change    = 0.00768833
throughput change = 0.0188679
Class 0:
Packet latency average = 20.322
	minimum = 7
	maximum = 48
Network latency average = 20.322
	minimum = 7
	maximum = 48
Slowest packet = 6892
Flit latency average = 20.3325
	minimum = 7
	maximum = 49
Slowest flit = 5994
Fragmentation average = 0
	minimum = 0
	maximum = 0
Injected packet rate average = 0.0505417
	minimum = 0.042 (at node 13)
	maximum = 0.0606667 (at node 6)
Accepted packet rate average = 0.050875
	minimum = 0.046 (at node 4)
	maximum = 0.0633333 (at node 8)
Injected flit rate average = 0.0505417
	minimum = 0.042 (at node 13)
	maximum = 0.0606667 (at node 6)
Accepted flit rate average= 0.050875
	minimum = 0.046 (at node 4)
	maximum = 0.0633333 (at node 8)
Injected packet length average = 1
Accepted packet length average = 1
Total in-flight flits = 11 (11 measured)
latency change    = 0.00176562
throughput change = 0.0233415
Draining all recorded packets ...
Draining remaining packets ...
Time taken is 3056 cycles
Class 0:
Packet latency average = 19.8197
	minimum = 7
	maximum = 44
Network latency average = 19.8197
	minimum = 7
	maximum = 44
Slowest packet = 7321
Flit latency average = 19.8197
	minimum = 7
	maximum = 44
Slowest flit = 7321
Fragmentation average = 0
	minimum = 0
	maximum = 0
Injected packet rate average = 0.047125
	minimum = 0.024 (at node 4)
	maximum = 0.064 (at node 15)
Accepted packet rate average = 0.044375
	minimum = 0.03 (at node 5)
	maximum = 0.06 (at node 11)
Injected flit rate average = 0.047125
	minimum = 0.024 (at node 4)
	maximum = 0.064 (at node 15)
Accepted flit rate average= 0.044375
	minimum = 0.03 (at node 5)
	maximum = 0.06 (at node 11)
Injected packet length average = 1
Accepted packet length average = 1
Total in-flight flits = 22 (0 measured)
latency change    = 1
throughput change = 1
Class 0:
Packet latency average = 20.0573
	minimum = 7
	maximum = 45
Network latency average = 20.0573
	minimum = 7
	maximum = 45
Slowest packet = 7601
Flit latency average = 20.0573
	minimum = 7
	maximum = 45
Slowest flit = 7601
Fragmentation average = 0
	minimum = 0
	maximum = 0
Injected packet rate average = 0.0469375
	minimum = 0.035 (at node 4)
	maximum = 0.057 (at node 10)
Accepted packet rate average = 0.0458125
	minimum = 0.033 (at node 5)
	maximum = 0.058 (at node 12)
Injected flit rate average = 0.0469375
	minimum = 0.035 (at node 4)
	maximum = 0.057 (at node 10)
Accepted flit rate average= 0.0458125
	minimum = 0.033 (at node 5)
	maximum = 0.058 (at node 12)
Injected packet length average = 1
Accepted packet length average = 1
Total in-flight flits = 18 (0 measured)
latency change    = 0.0118451
throughput change = 0.0313779
Class 0:
Packet latency average = 19.8415
	minimum = 7
	maximum = 42
Network latency average = 19.8415
	minimum = 7
	maximum = 42
Slowest packet = 8063
Flit latency average = 19.8415
	minimum = 7
	maximum = 42
Slowest flit = 8063
Fragmentation average = 0
	minimum = 0
	maximum = 0
Injected packet rate average = 0.0505
	minimum = 0.034 (at node 1)
	maximum = 0.07 (at node 11)
Accepted packet rate average = 0.05125
	minimum = 0.028 (at node 4)
	maximum = 0.078 (at node 0)
Injected flit rate average = 0.0505
	minimum = 0.034 (at node 1)
	maximum = 0.07 (at node 11)
Accepted flit rate average= 0.05125
	minimum = 0.028 (at node 4)
	maximum = 0.078 (at node 0)
Injected packet length average = 1
Accepted packet length average = 1
Total in-flight flits = 12 (0 measured)
latency change    = 0.010878
throughput change = 0.106098
Warmed up ...Time used is 1500 cycles
Class 0:
Packet latency average = 19.1694
	minimum = 7
	maximum = 40
Network latency average = 19.1694
	minimum = 7
	maximum = 40
Slowest packet = 8576
Flit latency average = 19.1797
	minimum = 7
	maximum = 40
Slowest flit = 8576
Fragmentation average = 0
	minimum = 0
	maximum = 0
Injected packet rate average = 0.04825
	minimum = 0.038 (at node 2)
	maximum = 0.062 (at node 9)
Accepted packet rate average = 0.048
	minimum = 0.03 (at node 10)
	maximum = 0.07 (at node 2)
Injected flit rate average = 0.04825
	minimum = 0.038 (at node 2)
	maximum = 0.062 (at node 9)
Accepted flit rate average= 0.048
	minimum = 0.03 (at node 10)
	maximum = 0.07 (at node 2)
Injected packet length average = 1
Accepted packet length average = 1
Total in-flight flits = 14 (14 measured)
latency change    = 0.0350616
throughput change = 0.0677083
Class 0:
Packet latency average = 20.0961
	minimum = 7
	maximum = 44
Network latency average = 20.0961
	minimum = 7
	maximum = 44
Slowest packet = 9022
Flit latency average = 20.0873
	minimum = 7
	maximum = 44
Slowest flit = 9022
Fragmentation average = 0
	minimum = 0
	maximum = 0
Injected packet rate average = 0.051
	minimum = 0.039 (at node 3)
	maximum = 0.065 (at node 12)
Accepted packet rate average = 0.0508125
	minimum = 0.041 (at node 10)
	maximum = 0.06 (at node 0)
Injected flit rate average = 0.051
	minimum = 0.039 (at node 3)
	maximum = 0.065 (at node 12)
Accepted flit rate average= 0.0508125
	minimum = 0.041 (at node 10)
	maximum = 0.06 (at node 0)
Injected packet length average = 1
Accepted packet length average = 1
Total in-flight flits = 15 (15 measured)
latency change    = 0.0461171
throughput change = 0.0553506
Class 0:
Packet latency average = 20.4796
	minimum = 7
	maximum = 72
Network latency average = 20.4779
	minimum = 7
	maximum = 72
Slowest packet = 9546
Flit latency average = 20.4683
	minimum = 7
	maximum = 72
Slowest flit = 9546
Fragmentation average = 0
	minimum = 0
	maximum = 0
Injected packet rate average = 0.0506667
	minimum = 0.0393333 (at node 14)
	maximum = 0.0626667 (at node 0)
Accepted packet rate average = 0.0505417
	minimum = 0.046 (at node 3)
	maximum = 0.0553333 (at node 2)
Injected flit rate average = 0.0506667
	minimum = 0.0393333 (at node 14)
	maximum = 0.0626667 (at node 0)
Accepted flit rate average= 0.0505417
	minimum = 0.046 (at node 3)
	maximum = 0.0553333 (at node 2)
Injected packet length average = 1
Accepted packet length average = 1
Total in-flight flits = 15 (15 measured)
latency change    = 0.0187245
throughput change = 0.00535862
Class 0:
Packet latency average = 20.3752
	minimum = 7
	maximum = 72
Network latency average = 20.3739
	minimum = 7
	maximum = 72
Slowest packet = 9546
Flit latency average = 20.3676
	minimum = 7
	maximum = 72
Slowest flit = 9546
Fragmentation average = 0
	minimum = 0
	maximum = 0
Injected packet rate average = 0.0512813
	minimum = 0.0405 (at node 14)
	maximum = 0.0605 (at node 0)
Accepted packet rate average = 0.0514375
	minimum = 0.0455 (at node 4)
	maximum = 0.0575 (at node 15)
Injected flit rate average = 0.0512813
	minimum = 0.0405 (at node 14)
	maximum = 0.0605 (at node 0)
Accepted flit rate average= 0.0514375
	minimum = 0.0455 (at node 4)
	maximum = 0.0575 (at node 15)
Injected packet length average = 1
Accepted packet length average = 1
Total in-flight flits = 7 (7 measured)
latency change    = 0.00512621
throughput change = 0.017416
Class 0:
Packet latency average = 20.3008
	minimum = 7
	maximum = 72
Network latency average = 20.2999
	minimum = 7
	maximum = 72
Slowest packet = 9546
Flit latency average = 20.2952
	minimum = 7
	maximum = 72
Slowest flit = 9546
Fragmentation average = 0
	minimum = 0
	maximum = 0
Injected packet rate average = 0.051575
	minimum = 0.0416 (at node 14)
	maximum = 0.0584 (at node 0)
Accepted packet rate average = 0.051325
	minimum = 0.0456 (at node 8)
	maximum = 0.0552 (at node 5)
Injected flit rate average = 0.051575
	minimum = 0.0416 (at node 14)
	maximum = 0.0584 (at node 0)
Accepted flit rate average= 0.051325
	minimum = 0.0456 (at node 8)
	maximum = 0.0552 (at node 5)
Injected packet length average = 1
Accepted packet length average = 1
Total in-flight flits = 22 (22 measured)
latency change    = 0.00366094
throughput change = 0.00219191
Draining all recorded packets ...
Draining remaining packets ...
Time taken is 4066 cycles
Class 0:
Packet latency average = 20.28
	minimum = 7
	maximum = 46
Network latency average = 20.28
	minimum = 7
	maximum = 46
Slowest packet = 10764
Flit latency average = 20.28
	minimum = 7
	maximum = 46
Slowest flit = 10764
Fragmentation average = 0
	minimum = 0
	maximum = 0
Injected packet rate average = 0.055
	minimum = 0.034 (at node 4)
	maximum = 0.08 (at node 10)
Accepted packet rate average = 0.053125
	minimum = 0.04 (at node 0)
	maximum = 0.066 (at node 7)
Injected flit rate average = 0.055
	minimum = 0.034 (at node 4)
	maximum = 0.08 (at node 10)
Accepted flit rate average= 0.053125
	minimum = 0.04 (at node 0)
	maximum = 0.066 (at node 7)
Injected packet length average = 1
Accepted packet length average = 1
Total in-flight flits = 15 (0 measured)
latency change    = 1
throughput change = 1
Class 0:
Packet latency average = 19.9398
	minimum = 7
	maximum = 46
Network latency average = 19.9398
	minimum = 7
	maximum = 46
Slowest packet = 10764
Flit latency average = 19.9398
	minimum = 7
	maximum = 46
Slowest flit = 10764
Fragmentation average = 0
	minimum = 0
	maximum = 0
Injected packet rate average = 0.0530625
	minimum = 0.04 (at node 4)
	maximum = 0.069 (at node 11)
Accepted packet rate average = 0.051875
	minimum = 0.038 (at node 0)
	maximum = 0.064 (at node 5)
Injected flit rate average = 0.0530625
	minimum = 0.04 (at node 4)
	maximum = 0.069 (at node 11)
Accepted flit rate average= 0.051875
	minimum = 0.038 (at node 0)
	maximum = 0.064 (at node 5)
Injected packet length average = 1
Accepted packet length average = 1
Total in-flight flits = 19 (0 measured)
latency change    = 0.0170634
throughput change = 0.0240964
Class 0:
Packet latency average = 20.4514
	minimum = 7
	maximum = 74
Network latency average = 20.4514
	minimum = 7
	maximum = 74
Slowest packet = 11365
Flit latency average = 20.4514
	minimum = 7
	maximum = 74
Slowest flit = 11365
Fragmentation average = 0
	minimum = 0
	maximum = 0
Injected packet rate average = 0.049
	minimum = 0.034 (at node 6)
	maximum = 0.066 (at node 10)
Accepted packet rate average = 0.050125
	minimum = 0.022 (at node 4)
	maximum = 0.074 (at node 9)
Injected flit rate average = 0.049
	minimum = 0.034 (at node 6)
	maximum = 0.066 (at node 10)
Accepted flit rate average= 0.050125
	minimum = 0.022 (at node 4)
	maximum = 0.074 (at node 9)
Injected packet length average = 1
Accepted packet length average = 1
Total in-flight flits = 10 (0 measured)
latency change    = 0.0250161
throughput change = 0.0349127
Warmed up ...Time used is 1500 cycles
Class 0:
Packet latency average = 20.1958
	minimum = 7
	maximum = 51
Network latency average = 20.1958
	minimum = 7
	maximum = 51
Slowest packet = 11790
Flit latency average = 20.2341
	minimum = 7
	maximum = 51
Slowest flit = 11790
Fragmentation average = 0
	minimum = 0
	maximum = 0
Injected packet rate average = 0.04975
	minimum = 0.034 (at node 9)
	maximum = 0.064 (at node 2)
Accepted packet rate average = 0.049125
	minimum = 0.032 (at node 8)
	maximum = 0.068 (at node 0)
Injected flit rate average = 0.04975
	minimum = 0.034 (at node 9)
	maximum = 0.064 (at node 2)
Accepted flit rate average= 0.049125
	minimum = 0.032 (at node 8)
	maximum = 0.068 (at node 0)
Injected packet length average = 1
Accepted packet length average = 1
Total in-flight flits = 15 (15 measured)
latency change    = 0.0126536
throughput change = 0.0203562
Class 0:
Packet latency average = 20.0542
	minimum = 7
	maximum = 51
Network latency average = 20.0542
	minimum = 7
	maximum = 51
Slowest packet = 11790
Flit latency average = 20.0752
	minimum = 7
	maximum = 51
Slowest flit = 11790
Fragmentation average = 0
	minimum = 0
	maximum = 0
Injected packet rate average = 0.0491875
	minimum = 0.038 (at node 12)
	maximum = 0.061 (at node 15)
Accepted packet rate average = 0.0490625
	minimum = 0.037 (at node 8)
	maximum = 0.062 (at node 0)
Injected flit rate average = 0.0491875
	minimum = 0.038 (at node 12)
	maximum = 0.061 (at node 15)
Accepted flit rate average= 0.0490625
	minimum = 0.037 (at node 8)
	maximum = 0.062 (at node 0)
Injected packet length average = 1
Accepted packet length average = 1
Total in-flight flits = 12 (12 measured)
latency change    = 0.00706231
throughput change = 0.00127389
Class 0:
Packet latency average = 20.0229
	minimum = 7
	maximum = 51
Network latency average = 20.0229
	minimum = 7
	maximum = 51
Slowest packet = 11790
Flit latency average = 20.037
	minimum = 7
	maximum = 51
Slowest flit = 11790
Fragmentation average = 0
	minimum = 0
	maximum = 0
Injected packet rate average = 0.0496667
	minimum = 0.038 (at node 0)
	maximum = 0.0593333 (at node 15)
Accepted packet rate average = 0.0495
	minimum = 0.0393333 (at node 12)
	maximum = 0.062 (at node 0)
Injected flit rate average = 0.0496667
	minimum = 0.038 (at node 0)
	maximum = 0.0593333 (at node 15)
Accepted flit rate average= 0.0495
	minimum = 0.0393333 (at node 12)
	maximum = 0.062 (at node 0)
Injected packet length average = 1
Accepted packet length average = 1
Total in-flight flits = 14 (14 measured)
latency change    = 0.00156188
throughput change = 0.00883838
Draining all recorded packets ...
Draining remaining packets ...
Time taken is 3051 cycles
Class 0:
Packet latency average = 19.1928
	minimum = 7
	maximum = 49
Network latency average = 19.1928
	minimum = 7
	maximum = 49
Slowest packet = 13228
Flit latency average = 19.1928
	minimum = 7
	maximum = 49
Slowest flit = 13228
Fragmentation average = 0
	minimum = 0
	maximum = 0
Injected packet rate average = 0.046625
	minimum = 0.028 (at node 13)
	maximum = 0.062 (at node 5)
Accepted packet rate average = 0.045375
	minimum = 0.032 (at node 11)
	maximum = 0.058 (at node 6)
Injected flit rate average = 0.046625
	minimum = 0.028 (at node 13)
	maximum = 0.062 (at node 5)
Accepted flit rate average= 0.045375
	minimum = 0.032 (at node 11)
	maximum = 0.058 (at node 6)
Injected packet length average = 1
Accepted packet length average = 1
Total in-flight flits = 10 (0 measured)
latency change    = 1
throughput change = 1
Class 0:
Packet latency average = 19.6077
	minimum = 7
	maximum = 55
Network latency average = 19.6077
	minimum = 7
	maximum = 55
Slowest packet = 13279
Flit latency average = 19.6077
	minimum = 7
	maximum = 55
Slowest flit = 13279
Fragmentation average = 0
	minimum = 0
	maximum = 0
Injected packet rate average = 0.0495625
	minimum = 0.041 (at node 7)
	maximum = 0.058 (at node 0)
Accepted packet rate average = 0.0484375
	minimum = 0.035 (at node 2)
	maximum = 0.06 (at node 10)
Injected flit rate average = 0.0495625
	minimum = 0.041 (at node 7)
	maximum = 0.058 (at node 0)
Accepted flit rate average= 0.0484375
	minimum = 0.035 (at node 2)
	maximum = 0.06 (at node 10)
Injected packet length average = 1
Accepted packet length average = 1
Total in-flight flits = 18 (0 measured)
latency change    = 0.0211602
throughput change = 0.0632258
Class 0:
Packet latency average = 19.624
	minimum = 7
	maximum = 43
Network latency average = 19.624
	minimum = 7
	maximum = 43
Slowest packet = 13958
Flit latency average = 19.624
	minimum = 7
	maximum = 43
Slowest flit = 13958
Fragmentation average = 0
	minimum = 0
	maximum = 0
Injected packet rate average = 0.044375
	minimum = 0.032 (at node 15)
	maximum = 0.062 (at node 12)
Accepted packet rate average = 0.044875
	minimum = 0.024 (at node 14)
	maximum = 0.062 (at node 15)
Injected flit rate average = 0.044375
	minimum = 0.032 (at node 15)
	maximum = 0.062 (at node 12)
Accepted flit rate average= 0.044875
	minimum = 0.024 (at node 14)
	maximum = 0.062 (at node 15)
Injected packet length average = 1
Accepted packet length average = 1
Total in-flight flits = 14 (0 measured)
latency change    = 0.000826209
throughput change = 0.0793872
Warmed up ...Time used is 1500 cycles
Class 0:
Packet latency average = 20.4503
	minimum = 7
	maximum = 52
Network latency average = 20.4503
	minimum = 7
	maximum = 52
Slowest packet = 14431
Flit latency average = 20.5581
	minimum = 7
	maximum = 52
Slowest flit = 14431
Fragmentation average = 0
	minimum = 0
	maximum = 0
Injected packet rate average = 0.05
	minimum = 0.03 (at node 10)
	maximum = 0.076 (at node 14)
Accepted packet rate average = 0.0495
	minimum = 0.03 (at node 14)
	maximum = 0.082 (at node 13)
Injected flit rate average = 0.05
	minimum = 0.03 (at node 10)
	maximum = 0.076 (at node 14)
Accepted flit rate average= 0.0495
	minimum = 0.03 (at node 14)
	maximum = 0.082 (at node 13)
Injected packet length average = 1
Accepted packet length average = 1
Total in-flight flits = 18 (18 measured)
latency change    = 0.0404057
throughput change = 0.0934343
Class 0:
Packet latency average = 20.1599
	minimum = 7
	maximum = 52
Network latency average = 20.1599
	minimum = 7
	maximum = 52
Slowest packet = 14431
Flit latency average = 20.2168
	minimum = 7
	maximum = 52
Slowest flit = 14431
Fragmentation average = 0
	minimum = 0
	maximum = 0
Injected packet rate average = 0.051625
	minimum = 0.04 (at node 6)
	maximum = 0.062 (at node 7)
Accepted packet rate average = 0.0513125
	minimum = 0.037 (at node 14)
	maximum = 0.07 (at node 13)
Injected flit rate average = 0.051625
	minimum = 0.04 (at node 6)
	maximum = 0.062 (at node 7)
Accepted flit rate average= 0.0513125
	minimum = 0.037 (at node 14)
	maximum = 0.07 (at node 13)
Injected packet length average = 1
Accepted packet length average = 1
Total in-flight flits = 19 (19 measured)
latency change    = 0.0144054
throughput change = 0.0353228
Class 0:
Packet latency average = 20.36
	minimum = 7
	maximum = 52
Network latency average = 20.36
	minimum = 7
	maximum = 52
Slowest packet = 14431
Flit latency average = 20.3955
	minimum = 7
	maximum = 52
Slowest flit = 14431
Fragmentation average = 0
	minimum = 0
	maximum = 0
Injected packet rate average = 0.0515
	minimum = 0.0433333 (at node 5)
	maximum = 0.0606667 (at node 4)
Accepted packet rate average = 0.051625
	minimum = 0.0393333 (at node 6)
	maximum = 0.064 (at node 13)
Injected flit rate average = 0.0515
	minimum = 0.0433333 (at node 5)
	maximum = 0.0606667 (at node 4)
Accepted flit rate average= 0.051625
	minimum = 0.0393333 (at node 6)
	maximum = 0.064 (at node 13)
Injected packet length average = 1
Accepted packet length average = 1
Total in-flight flits = 11 (11 measured)
latency change    = 0.00983049
throughput change = 0.00605327
Class 0:
Packet latency average = 20.2742
	minimum = 7
	maximum = 52
Network latency average = 20.273
	minimum = 7
	maximum = 52
Slowest packet = 14431
Flit latency average = 20.3005
	minimum = 7
	maximum = 52
Slowest flit = 14431
Fragmentation average = 0
	minimum = 0
	maximum = 0
Injected packet rate average = 0.0515313
	minimum = 0.0415 (at node 5)
	maximum = 0.06 (at node 7)
Accepted packet rate average = 0.0511563
	minimum = 0.04 (at node 6)
	maximum = 0.061 (at node 13)
Injected flit rate average = 0.0515313
	minimum = 0.0415 (at node 5)
	maximum = 0.06 (at node 7)
Accepted flit rate average= 0.0511563
	minimum = 0.04 (at node 6)
	maximum = 0.061 (at node 13)
Injected packet length average = 1
Accepted packet length average = 1
Total in-flight flits = 26 (26 measured)
latency change    = 0.00423279
throughput change = 0.0091631
Draining all recorded packets ...
Draining remaining packets ...
Time taken is 3575 cycles
Class 0:
Packet latency average = 20.2231
	minimum = 7
	maximum = 39
Network latency average = 20.2231
	minimum = 7
	maximum = 39
Slowest packet = 15869
Flit latency average = 20.2231
	minimum = 7
	maximum = 39
Slowest flit = 15869
Fragmentation average = 0
	minimum = 0
	maximum = 0
Injected packet rate average = 0.0495
	minimum = 0.042 (at node 8)
	maximum = 0.062 (at node 5)
Accepted packet rate average = 0.0465
	minimum = 0.032 (at node 10)
	maximum = 0.06 (at node 13)
Injected flit rate average = 0.0495
	minimum = 0.042 (at node 8)
	maximum = 0.062 (at node 5)
Accepted flit rate average= 0.0465
	minimum = 0.032 (at node 10)
	maximum = 0.06 (at node 13)
Injected packet length average = 1
Accepted packet length average = 1
Total in-flight flits = 24 (0 measured)
latency change    = 1
throughput change = 1
Class 0:
Packet latency average = 20.6503
	minimum = 7
	maximum = 62
Network latency average = 20.6503
	minimum = 7
	maximum = 62
Slowest packet = 16258
Flit latency average = 20.6503
	minimum = 7
	maximum = 62
Slowest flit = 16258
Fragmentation average = 0
	minimum = 0
	maximum = 0
Injected packet rate average = 0.0525625
	minimum = 0.043 (at node 15)
	maximum = 0.061 (at node 12)
Accepted packet rate average = 0.0509375
	minimum = 0.036 (at node 9)
	maximum = 0.064 (at node 6)
Injected flit rate average = 0.0525625
	minimum = 0.043 (at node 15)
	maximum = 0.061 (at node 12)
Accepted flit rate average= 0.0509375
	minimum = 0.036 (at node 9)
	maximum = 0.064 (at node 6)
Injected packet length average = 1
Accepted packet length average = 1
Total in-flight flits = 26 (0 measured)
latency change    = 0.0206868
throughput change = 0.0871166
Class 0:
Packet latency average = 20.4733
	minimum = 7
	maximum = 39
Network latency average = 20.4733
	minimum = 7
	maximum = 39
Slowest packet = 16619
Flit latency average = 20.4733
	minimum = 7
	maximum = 39
Slowest flit = 16619
Fragmentation average = 0
	minimum = 0
	maximum = 0
Injected packet rate average = 0.05025
	minimum = 0.026 (at node 5)
	maximum = 0.078 (at node 9)
Accepted packet rate average = 0.0515
	minimum = 0.036 (at node 4)
	maximum = 0.066 (at node 12)
Injected flit rate average = 0.05025
	minimum = 0.026 (at node 5)
	maximum = 0.078 (at node 9)
Accepted flit rate average= 0.0515
	minimum = 0.036 (at node 4)
	maximum = 0.066 (at node 12)
Injected packet length average = 1
Accepted packet length average = 1
Total in-flight flits = 16 (0 measured)
latency change    = 0.00864569
throughput change = 0.0109223
Warmed up ...Time used is 1500 cycles
Class 0:
Packet latency average = 20.4751
	minimum = 7
	maximum = 48
Network latency average = 20.4751
	minimum = 7
	maximum = 48
Slowest packet = 17248
Flit latency average = 20.5
	minimum = 7
	maximum = 48
Slowest flit = 17248
Fragmentation average = 0
	minimum = 0
	maximum = 0
Injected packet rate average = 0.05225
	minimum = 0.032 (at node 11)
	maximum = 0.07 (at node 5)
Accepted packet rate average = 0.05225
	minimum = 0.04 (at node 9)
	maximum = 0.066 (at node 4)
Injected flit rate average = 0.05225
	minimum = 0.032 (at node 11)
	maximum = 0.07 (at node 5)
Accepted flit rate average= 0.05225
	minimum = 0.04 (at node 9)
	maximum = 0.066 (at node 4)
Injected packet length average = 1
Accepted packet length average = 1
Total in-flight flits = 16 (16 measured)
latency change    = 8.90548e-05
throughput change = 0.0143541
Class 0:
Packet latency average = 20.1562
	minimum = 7
	maximum = 48
Network latency average = 20.1562
	minimum = 7
	maximum = 48
Slowest packet = 17248
Flit latency average = 20.1752
	minimum = 7
	maximum = 48
Slowest flit = 17248
Fragmentation average = 0
	minimum = 0
	maximum = 0
Injected packet rate average = 0.0505
	minimum = 0.037 (at node 11)
	maximum = 0.065 (at node 13)
Accepted packet rate average = 0.051
	minimum = 0.037 (at node 9)
	maximum = 0.063 (at node 4)
Injected flit rate average = 0.0505
	minimum = 0.037 (at node 11)
	maximum = 0.065 (at node 13)
Accepted flit rate average= 0.051
	minimum = 0.037 (at node 9)
	maximum = 0.063 (at node 4)
Injected packet length average = 1
Accepted packet length average = 1
Total in-flight flits = 8 (8 measured)
latency change    = 0.0158201
throughput change = 0.0245098
Class 0:
Packet latency average = 20.3975
	minimum = 7
	maximum = 51
Network latency average = 20.3975
	minimum = 7
	maximum = 51
Slowest packet = 18075
Flit latency average = 20.407
	minimum = 7
	maximum = 51
Slowest flit = 18075
Fragmentation average = 0
	minimum = 0
	maximum = 0
Injected packet rate average = 0.051125
	minimum = 0.044 (at node 15)
	maximum = 0.0606667 (at node 13)
Accepted packet rate average = 0.0512917
	minimum = 0.0426667 (at node 9)
	maximum = 0.058 (at node 3)
Injected flit rate average = 0.051125
	minimum = 0.044 (at node 15)
	maximum = 0.0606667 (at node 13)
Accepted flit rate average= 0.0512917
	minimum = 0.0426667 (at node 9)
	maximum = 0.058 (at node 3)
Injected packet length average = 1
Accepted packet length average = 1
Total in-flight flits = 12 (12 measured)
latency change    = 0.0118289
throughput change = 0.00568643
Draining all recorded packets ...
Draining remaining packets ...
Time taken is 3063 cycles
Class 0:
Packet latency average = 20.2257
	minimum = 7
	maximum = 39
Network latency average = 20.2257
	minimum = 7
	maximum = 39
Slowest packet = 18360
Flit latency average = 20.2257
	minimum = 7
	maximum = 39
Slowest flit = 18360
Fragmentation average = 0
	minimum = 0
	maximum = 0
Injected packet rate average = 0.0495
	minimum = 0.036 (at node 2)
	maximum = 0.064 (at node 7)
Accepted packet rate average = 0.047625
	minimum = 0.028 (at node 2)
	maximum = 0.062 (at node 4)
Injected flit rate average = 0.0495
	minimum = 0.036 (at node 2)
	maximum = 0.064 (at node 7)
Accepted flit rate average= 0.047625
	minimum = 0.028 (at node 2)
	maximum = 0.062 (at node 4)
Injected packet length average = 1
Accepted packet length average = 1
Total in-flight flits = 15 (0 measured)
latency change    = 1
throughput change = 1
Class 0:
Packet latency average = 20.513
	minimum = 7
	maximum = 49
Network latency average = 20.513
	minimum = 7
	maximum = 49
Slowest packet = 18629
Flit latency average = 20.513
	minimum = 7
	maximum = 49
Slowest flit = 18629
Fragmentation average = 0
	minimum = 0
	maximum = 0
Injected packet rate average = 0.047
	minimum = 0.04 (at node 1)
	maximum = 0.056 (at node 10)
Accepted packet rate average = 0.0458125
	minimum = 0.034 (at node 2)
	maximum = 0.067 (at node 11)
Injected flit rate average = 0.047
	minimum = 0.04 (at node 1)
	maximum = 0.056 (at node 10)
Accepted flit rate average= 0.0458125
	minimum = 0.034 (at node 2)
	maximum = 0.067 (at node 11)
Injected packet length average = 1
Accepted packet length average = 1
Total in-flight flits = 19 (0 measured)
latency change    = 0.0140028
throughput change = 0.0395634
Class 0:
Packet latency average = 20.2217
	minimum = 7
	maximum = 46
Network latency average = 20.2217
	minimum = 7
	maximum = 46
Slowest packet = 19003
Flit latency average = 20.2217
	minimum = 7
	maximum = 46
Slowest flit = 19003
Fragmentation average = 0
	minimum = 0
	maximum = 0
Injected packet rate average = 0.05175
	minimum = 0.038 (at node 6)
	maximum = 0.064 (at node 3)
Accepted packet rate average = 0.051875
	minimum = 0.034 (at node 12)
	maximum = 0.062 (at node 4)
Injected flit rate average = 0.05175
	minimum = 0.038 (at node 6)
	maximum = 0.064 (at node 3)
Accepted flit rate average= 0.051875
	minimum = 0.034 (at node 12)
	maximum = 0.062 (at node 4)
Injected packet length average = 1
Accepted packet length average = 1
Total in-flight flits = 18 (0 measured)
latency change    = 0.014404
throughput change = 0.116867
Warmed up ...Time used is 1500 cycles
Class 0:
Packet latency average = 19.1735
	minimum = 7
	maximum = 44
Network latency average = 19.1735
	minimum = 7
	maximum = 44
Slowest packet = 19777
Flit latency average = 19.4122
	minimum = 7
	maximum = 44
Slowest flit = 19777
Fragmentation average = 0
	minimum = 0
	maximum = 0
Injected packet rate average = 0.050875
	minimum = 0.034 (at node 15)
	maximum = 0.064 (at node 12)
Accepted packet rate average = 0.05125
	minimum = 0.038 (at node 12)
	maximum = 0.066 (at node 9)
Injected flit rate average = 0.050875
	minimum = 0.034 (at node 15)
	maximum = 0.064 (at node 12)
Accepted flit rate average= 0.05125
	minimum = 0.038 (at node 12)
	maximum = 0.066 (at node 9)
Injected packet length average = 1
Accepted packet length average = 1
Total in-flight flits = 15 (15 measured)
latency change    = 0.0546702
throughput change = 0.0121951
Class 0:
Packet latency average = 19.4981
	minimum = 7
	maximum = 46
Network latency average = 19.4981
	minimum = 7
	maximum = 46
Slowest packet = 20191
Flit latency average = 19.6116
	minimum = 7
	maximum = 46
Slowest flit = 20191
Fragmentation average = 0
	minimum = 0
	maximum = 0
Injected packet rate average = 0.0505
	minimum = 0.032 (at node 15)
	maximum = 0.065 (at node 13)
Accepted packet rate average = 0.0506875
	minimum = 0.04 (at node 10)
	maximum = 0.063 (at node 4)
Injected flit rate average = 0.0505
	minimum = 0.032 (at node 15)
	maximum = 0.065 (at node 13)
Accepted flit rate average= 0.0506875
	minimum = 0.04 (at node 10)
	maximum = 0.063 (at node 4)
Injected packet length average = 1
Accepted packet length average = 1
Total in-flight flits = 15 (15 measured)
latency change    = 0.0166498
throughput change = 0.0110974
Class 0:
Packet latency average = 19.7789
	minimum = 7
	maximum = 52
Network latency average = 19.7789
	minimum = 7
	maximum = 52
Slowest packet = 20492
Flit latency average = 19.8518
	minimum = 7
	maximum = 52
Slowest flit = 20492
Fragmentation average = 0
	minimum = 0
	maximum = 0
Injected packet rate average = 0.0491667
	minimum = 0.034 (at node 15)
	maximum = 0.062 (at node 11)
Accepted packet rate average = 0.04975
	minimum = 0.042 (at node 2)
	maximum = 0.0626667 (at node 4)
Injected flit rate average = 0.0491667
	minimum = 0.034 (at node 15)
	maximum = 0.062 (at node 11)
Accepted flit rate average= 0.04975
	minimum = 0.042 (at node 2)
	maximum = 0.0626667 (at node 4)
Injected packet length average = 1
Accepted packet length average = 1
Total in-flight flits = 4 (4 measured)
latency change    = 0.0141971
throughput change = 0.0188442
Class 0:
Packet latency average = 19.8034
	minimum = 7
	maximum = 52
Network latency average = 19.8034
	minimum = 7
	maximum = 52
Slowest packet = 20492
Flit latency average = 19.8589
	minimum = 7
	maximum = 52
Slowest flit = 20492
Fragmentation average = 0
	minimum = 0
	maximum = 0
Injected packet rate average = 0.0485937
	minimum = 0.0345 (at node 15)
	maximum = 0.0615 (at node 13)
Accepted packet rate average = 0.0487187
	minimum = 0.042 (at node 12)
	maximum = 0.059 (at node 4)
Injected flit rate average = 0.0485937
	minimum = 0.0345 (at node 15)
	maximum = 0.0615 (at node 13)
Accepted flit rate average= 0.0487187
	minimum = 0.042 (at node 12)
	maximum = 0.059 (at node 4)
Injected packet length average = 1
Accepted packet length average = 1
Total in-flight flits = 14 (14 measured)
latency change    = 0.00123529
throughput change = 0.0211674
Draining all recorded packets ...
Draining remaining packets ...
Time taken is 3556 cycles
Class 0:
Packet latency average = 20.703
	minimum = 7
	maximum = 45
Network latency average = 20.703
	minimum = 7
	maximum = 45
Slowest packet = 21161
Flit latency average = 20.703
	minimum = 7
	maximum = 45
Slowest flit = 21161
Fragmentation average = 0
	minimum = 0
	maximum = 0
Injected packet rate average = 0.04675
	minimum = 0.028 (at node 6)
	maximum = 0.072 (at node 7)
Accepted packet rate average = 0.045875
	minimum = 0.026 (at node 0)
	maximum = 0.06 (at node 2)
Injected flit rate average = 0.04675
	minimum = 0.028 (at node 6)
	maximum = 0.072 (at node 7)
Accepted flit rate average= 0.045875
	minimum = 0.026 (at node 0)
	maximum = 0.06 (at node 2)
Injected packet length average = 1
Accepted packet length average = 1
Total in-flight flits = 7 (0 measured)
latency change    = 1
throughput change = 1
Class 0:
Packet latency average = 20.7075
	minimum = 7
	maximum = 45
Network latency average = 20.7075
	minimum = 7
	maximum = 45
Slowest packet = 21161
Flit latency average = 20.7075
	minimum = 7
	maximum = 45
Slowest flit = 21161
Fragmentation average = 0
	minimum = 0
	maximum = 0
Injected packet rate average = 0.04825
	minimum = 0.036 (at node 5)
	maximum = 0.059 (at node 7)
Accepted packet rate average = 0.0474375
	minimum = 0.035 (at node 0)
	maximum = 0.059 (at node 4)
Injected flit rate average = 0.04825
	minimum = 0.036 (at node 5)
	maximum = 0.059 (at node 7)
Accepted flit rate average= 0.0474375
	minimum = 0.035 (at node 0)
	maximum = 0.059 (at node 4)
Injected packet length average = 1
Accepted packet length average = 1
Total in-flight flits = 13 (0 measured)
latency change    = 0.000217921
throughput change = 0.0329381
Class 0:
Packet latency average = 19.9298
	minimum = 7
	maximum = 43
Network latency average = 19.9298
	minimum = 7
	maximum = 43
Slowest packet = 21922
Flit latency average = 19.9298
	minimum = 7
	maximum = 43
Slowest flit = 21922
Fragmentation average = 0
	minimum = 0
	maximum = 0
Injected packet rate average = 0.049625
	minimum = 0.034 (at node 7)
	maximum = 0.064 (at node 5)
Accepted packet rate average = 0.049875
	minimum = 0.04 (at node 5)
	maximum = 0.064 (at node 3)
Injected flit rate average = 0.049625
	minimum = 0.034 (at node 7)
	maximum = 0.064 (at node 5)
Accepted flit rate average= 0.049875
	minimum = 0.04 (at node 5)
	maximum = 0.064 (at node 3)
Injected packet length average = 1
Accepted packet length average = 1
Total in-flight flits = 11 (0 measured)
latency change    = 0.0390212
throughput change = 0.0488722
Warmed up ...Time used is 1500 cycles
Class 0:
Packet latency average = 20.416
	minimum = 7
	maximum = 50
Network latency average = 20.416
	minimum = 7
	maximum = 50
Slowest packet = 22298
Flit latency average = 20.4352
	minimum = 7
	maximum = 50
Slowest flit = 22298
Fragmentation average = 0
	minimum = 0
	maximum = 0
Injected packet rate average = 0.048875
	minimum = 0.038 (at node 2)
	maximum = 0.066 (at node 9)
Accepted packet rate average = 0.04825
	minimum = 0.036 (at node 2)
	maximum = 0.064 (at node 9)
Injected flit rate average = 0.048875
	minimum = 0.038 (at node 2)
	maximum = 0.066 (at node 9)
Accepted flit rate average= 0.04825
	minimum = 0.036 (at node 2)
	maximum = 0.064 (at node 9)
Injected packet length average = 1
Accepted packet length average = 1
Total in-flight flits = 16 (16 measured)
latency change    = 0.0238135
throughput change = 0.0336788
Class 0:
Packet latency average = 19.8138
	minimum = 7
	maximum = 50
Network latency average = 19.8138
	minimum = 7
	maximum = 50
Slowest packet = 22298
Flit latency average = 19.8313
	minimum = 7
	maximum = 50
Slowest flit = 22298
Fragmentation average = 0
	minimum = 0
	maximum = 0
Injected packet rate average = 0.050625
	minimum = 0.035 (at node 2)
	maximum = 0.062 (at node 9)
Accepted packet rate average = 0.050375
	minimum = 0.036 (at node 12)
	maximum = 0.066 (at node 9)
Injected flit rate average = 0.050625
	minimum = 0.035 (at node 2)
	maximum = 0.062 (at node 9)
Accepted flit rate average= 0.050375
	minimum = 0.036 (at node 12)
	maximum = 0.066 (at node 9)
Injected packet length average = 1
Accepted packet length average = 1
Total in-flight flits = 15 (15 measured)
latency change    = 0.0303911
throughput change = 0.0421836
Class 0:
Packet latency average = 19.9621
	minimum = 7
	maximum = 50
Network latency average = 19.9621
	minimum = 7
	maximum = 50
Slowest packet = 22298
Flit latency average = 19.9727
	minimum = 7
	maximum = 50
Slowest flit = 22298
Fragmentation average = 0
	minimum = 0
	maximum = 0
Injected packet rate average = 0.049125
	minimum = 0.0333333 (at node 2)
	maximum = 0.0613333 (at node 9)
Accepted packet rate average = 0.048875
	minimum = 0.0346667 (at node 12)
	maximum = 0.064 (at node 9)
Injected flit rate average = 0.049125
	minimum = 0.0333333 (at node 2)
	maximum = 0.0613333 (at node 9)
Accepted flit rate average= 0.048875
	minimum = 0.0346667 (at node 12)
	maximum = 0.064 (at node 9)
Injected packet length average = 1
Accepted packet length average = 1
Total in-flight flits = 17 (17 measured)
latency change    = 0.00742895
throughput change = 0.0306905
Draining all recorded packets ...
Draining remaining packets ...
Time taken is 3060 cycles
Class 0:
Packet latency average = 20.2937
	minimum = 7
	maximum = 44
Network latency average = 20.2937
	minimum = 7
	maximum = 44
Slowest packet = 23692
Flit latency average = 20.2937
	minimum = 7
	maximum = 44
Slowest flit = 23692
Fragmentation average = 0
	minimum = 0
	maximum = 0
Injected packet rate average = 0.0495
	minimum = 0.038 (at node 3)
	maximum = 0.062 (at node 1)
Accepted packet rate average = 0.04725
	minimum = 0.034 (at node 0)
	maximum = 0.058 (at node 7)
Injected flit rate average = 0.0495
	minimum = 0.038 (at node 3)
	maximum = 0.062 (at node 1)
Accepted flit rate average= 0.04725
	minimum = 0.034 (at node 0)
	maximum = 0.058 (at node 7)
Injected packet length average = 1
Accepted packet length average = 1
Total in-flight flits = 18 (0 measured)
latency change    = 1
throughput change = 1
Class 0:
Packet latency average = 20.3613
	minimum = 7
	maximum = 44
Network latency average = 20.3613
	minimum = 7
	maximum = 44
Slowest packet = 23692
Flit latency average = 20.3613
	minimum = 7
	maximum = 44
Slowest flit = 23692
Fragmentation average = 0
	minimum = 0
	maximum = 0
Injected packet rate average = 0.0479375
	minimum = 0.036 (at node 9)
	maximum = 0.058 (at node 14)
Accepted packet rate average = 0.046875
	minimum = 0.029 (at node 15)
	maximum = 0.057 (at node 1)
Injected flit rate average = 0.0479375
	minimum = 0.036 (at node 9)
	maximum = 0.058 (at node 14)
Accepted flit rate average= 0.046875
	minimum = 0.029 (at node 15)
	maximum = 0.057 (at node 1)
Injected packet length average = 1
Accepted packet length average = 1
Total in-flight flits = 17 (0 measured)
latency change    = 0.00332407
throughput change = 0.008
Class 0:
Packet latency average = 21.4801
	minimum = 7
	maximum = 55
Network latency average = 21.4801
	minimum = 7
	maximum = 55
Slowest packet = 24314
Flit latency average = 21.4801
	minimum = 7
	maximum = 55
Slowest flit = 24314
Fragmentation average = 0
	minimum = 0
	maximum = 0
Injected packet rate average = 0.049875
	minimum = 0.036 (at node 1)
	maximum = 0.066 (at node 3)
Accepted packet rate average = 0.05025
	minimum = 0.032 (at node 6)
	maximum = 0.064 (at node 3)
Injected flit rate average = 0.049875
	minimum = 0.036 (at node 1)
	maximum = 0.066 (at node 3)
Accepted flit rate average= 0.05025
	minimum = 0.032 (at node 6)
	maximum = 0.064 (at node 3)
Injected packet length average = 1
Accepted packet length average = 1
Total in-flight flits = 14 (0 measured)
latency change    = 0.0520838
throughput change = 0.0671642
Warmed up ...Time used is 1500 cycles
Class 0:
Packet latency average = 20.1241
	minimum = 7
	maximum = 49
Network latency average = 20.1241
	minimum = 7
	maximum = 49
Slowest packet = 24702
Flit latency average = 20.1775
	minimum = 7
	maximum = 49
Slowest flit = 24702
Fragmentation average = 0
	minimum = 0
	maximum = 0
Injected packet rate average = 0.052125
	minimum = 0.034 (at node 10)
	maximum = 0.072 (at node 14)
Accepted packet rate average = 0.052125
	minimum = 0.036 (at node 0)
	maximum = 0.074 (at node 10)
Injected flit rate average = 0.052125
	minimum = 0.034 (at node 10)
	maximum = 0.072 (at node 14)
Accepted flit rate average= 0.052125
	minimum = 0.036 (at node 0)
	maximum = 0.074 (at node 10)
Injected packet length average = 1
Accepted packet length average = 1
Total in-flight flits = 14 (14 measured)
latency change    = 0.0673835
throughput change = 0.0359712
Class 0:
Packet latency average = 19.9641
	minimum = 7
	maximum = 49
Network latency average = 19.9641
	minimum = 7
	maximum = 49
Slowest packet = 24702
Flit latency average = 19.9939
	minimum = 7
	maximum = 49
Slowest flit = 24702
Fragmentation average = 0
	minimum = 0
	maximum = 0
Injected packet rate average = 0.052125
	minimum = 0.045 (at node 3)
	maximum = 0.061 (at node 13)
Accepted packet rate average = 0.051375
	minimum = 0.04 (at node 4)
	maximum = 0.068 (at node 10)
Injected flit rate average = 0.052125
	minimum = 0.045 (at node 3)
	maximum = 0.061 (at node 13)
Accepted flit rate average= 0.051375
	minimum = 0.04 (at node 4)
	maximum = 0.068 (at node 10)
Injected packet length average = 1
Accepted packet length average = 1
Total in-flight flits = 26 (26 measured)
latency change    = 0.00801241
throughput change = 0.0145985
Class 0:
Packet latency average = 20.076
	minimum = 7
	maximum = 49
Network latency average = 20.076
	minimum = 7
	maximum = 49
Slowest packet = 24702
Flit latency average = 20.0946
	minimum = 7
	maximum = 49
Slowest flit = 24702
Fragmentation average = 0
	minimum = 0
	maximum = 0
Injected packet rate average = 0.0517917
	minimum = 0.044 (at node 8)
	maximum = 0.0633333 (at node 14)
Accepted packet rate average = 0.0515417
	minimum = 0.04 (at node 7)
	maximum = 0.064 (at node 10)
Injected flit rate average = 0.0517917
	minimum = 0.044 (at node 8)
	maximum = 0.0633333 (at node 14)
Accepted flit rate average= 0.0515417
	minimum = 0.04 (at node 7)
	maximum = 0.064 (at node 10)
Injected packet length average = 1
Accepted packet length average = 1
Total in-flight flits = 20 (20 measured)
latency change    = 0.00557548
throughput change = 0.00323363
Class 0:
Packet latency average = 20.0264
	minimum = 7
	maximum = 49
Network latency average = 20.0264
	minimum = 7
	maximum = 49
Slowest packet = 24702
Flit latency average = 20.0408
	minimum = 7
	maximum = 49
Slowest flit = 24702
Fragmentation average = 0
	minimum = 0
	maximum = 0
Injected packet rate average = 0.0516875
	minimum = 0.0445 (at node 8)
	maximum = 0.0585 (at node 14)
Accepted packet rate average = 0.0513125
	minimum = 0.0415 (at node 7)
	maximum = 0.0605 (at node 10)
Injected flit rate average = 0.0516875
	minimum = 0.0445 (at node 8)
	maximum = 0.0585 (at node 14)
Accepted flit rate average= 0.0513125
	minimum = 0.0415 (at node 7)
	maximum = 0.0605 (at node 10)
Injected packet length average = 1
Accepted packet length average = 1
Total in-flight flits = 26 (26 measured)
latency change    = 0.00247821
throughput change = 0.0044661
Draining all recorded packets ...
Draining remaining packets ...
Time taken is 3557 cycles
Class 0:
Packet latency average = 21.5026
	minimum = 7
	maximum = 49
Network latency average = 21.5026
	minimum = 7
	maximum = 49
Slowest packet = 26380
Flit latency average = 21.5026
	minimum = 7
	maximum = 49
Slowest flit = 26380
Fragmentation average = 0
	minimum = 0
	maximum = 0
Injected packet rate average = 0.0515
	minimum = 0.034 (at node 9)
	maximum = 0.074 (at node 14)
Accepted packet rate average = 0.048
	minimum = 0.036 (at node 1)
	maximum = 0.068 (at node 11)
Injected flit rate average = 0.0515
	minimum = 0.034 (at node 9)
	maximum = 0.074 (at node 14)
Accepted flit rate average= 0.048
	minimum = 0.036 (at node 1)
	maximum = 0.068 (at node 11)
Injected packet length average = 1
Accepted packet length average = 1
Total in-flight flits = 28 (0 measured)
latency change    = 1
throughput change = 1
Class 0:
Packet latency average = 20.8935
	minimum = 7
	maximum = 58
Network latency average = 20.8935
	minimum = 7
	maximum = 58
Slowest packet = 26603
Flit latency average = 20.8935
	minimum = 7
	maximum = 58
Slowest flit = 26603
Fragmentation average = 0
	minimum = 0
	maximum = 0
Injected packet rate average = 0.0490625
	minimum = 0.033 (at node 4)
	maximum = 0.062 (at node 14)
Accepted packet rate average = 0.0486875
	minimum = 0.035 (at node 14)
	maximum = 0.062 (at node 11)
Injected flit rate average = 0.0490625
	minimum = 0.033 (at node 4)
	maximum = 0.062 (at node 14)
Accepted flit rate average= 0.0486875
	minimum = 0.035 (at node 14)
	maximum = 0.062 (at node 11)
Injected packet length average = 1
Accepted packet length average = 1
Total in-flight flits = 6 (0 measured)
latency change    = 0.0291551
throughput change = 0.0141207
Class 0:
Packet latency average = 20.5013
	minimum = 7
	maximum = 51
Network latency average = 20.5013
	minimum = 7
	maximum = 51
Slowest packet = 27081
Flit latency average = 20.5013
	minimum = 7
	maximum = 51
Slowest flit = 27081
Fragmentation average = 0
	minimum = 0
	maximum = 0
Injected packet rate average = 0.048375
	minimum = 0.038 (at node 6)
	maximum = 0.06 (at node 12)
Accepted packet rate average = 0.046625
	minimum = 0.03 (at node 13)
	maximum = 0.06 (at node 2)
Injected flit rate average = 0.048375
	minimum = 0.038 (at node 6)
	maximum = 0.06 (at node 12)
Accepted flit rate average= 0.046625
	minimum = 0.03 (at node 13)
	maximum = 0.06 (at node 2)
Injected packet length average = 1
Accepted packet length average = 1
Total in-flight flits = 20 (0 measured)
latency change    = 0.0191262
throughput change = 0.0442359
Warmed up ...Time used is 1500 cycles
Class 0:
Packet latency average = 20.7613
	minimum = 7
	maximum = 63
Network latency average = 20.7613
	minimum = 7
	maximum = 63
Slowest packet = 27448
Flit latency average = 20.927
	minimum = 7
	maximum = 63
Slowest flit = 27448
Fragmentation average = 0
	minimum = 0
	maximum = 0
Injected packet rate average = 0.0495
	minimum = 0.038 (at node 13)
	maximum = 0.07 (at node 9)
Accepted packet rate average = 0.049625
	minimum = 0.03 (at node 4)
	maximum = 0.068 (at node 3)
Injected flit rate average = 0.0495
	minimum = 0.038 (at node 13)
	maximum = 0.07 (at node 9)
Accepted flit rate average= 0.049625
	minimum = 0.03 (at node 4)
	maximum = 0.068 (at node 3)
Injected packet length average = 1
Accepted packet length average = 1
Total in-flight flits = 19 (19 measured)
latency change    = 0.0125201
throughput change = 0.0604534
Class 0:
Packet latency average = 20.527
	minimum = 7
	maximum = 63
Network latency average = 20.527
	minimum = 7
	maximum = 63
Slowest packet = 27448
Flit latency average = 20.6115
	minimum = 7
	maximum = 63
Slowest flit = 27448
Fragmentation average = 0
	minimum = 0
	maximum = 0
Injected packet rate average = 0.0520625
	minimum = 0.04 (at node 3)
	maximum = 0.065 (at node 12)
Accepted packet rate average = 0.052125
	minimum = 0.034 (at node 1)
	maximum = 0.061 (at node 15)
Injected flit rate average = 0.0520625
	minimum = 0.04 (at node 3)
	maximum = 0.065 (at node 12)
Accepted flit rate average= 0.052125
	minimum = 0.034 (at node 1)
	maximum = 0.061 (at node 15)
Injected packet length average = 1
Accepted packet length average = 1
Total in-flight flits = 19 (19 measured)
latency change    = 0.0114116
throughput change = 0.0479616
Class 0:
Packet latency average = 20.3336
	minimum = 7
	maximum = 63
Network latency average = 20.3336
	minimum = 7
	maximum = 63
Slowest packet = 27448
Flit latency average = 20.3935
	minimum = 7
	maximum = 63
Slowest flit = 27448
Fragmentation average = 0
	minimum = 0
	maximum = 0
Injected packet rate average = 0.0512917
	minimum = 0.0413333 (at node 3)
	maximum = 0.0673333 (at node 9)
Accepted packet rate average = 0.0516667
	minimum = 0.0406667 (at node 1)
	maximum = 0.062 (at node 14)
Injected flit rate average = 0.0512917
	minimum = 0.0413333 (at node 3)
	maximum = 0.0673333 (at node 9)
Accepted flit rate average= 0.0516667
	minimum = 0.0406667 (at node 1)
	maximum = 0.062 (at node 14)
Injected packet length average = 1
Accepted packet length average = 1
Total in-flight flits = 11 (11 measured)
latency change    = 0.00951235
throughput change = 0.00887097
Class 0:
Packet latency average = 20.2298
	minimum = 7
	maximum = 63
Network latency average = 20.2298
	minimum = 7
	maximum = 63
Slowest packet = 27448
Flit latency average = 20.2767
	minimum = 7
	maximum = 63
Slowest flit = 27448
Fragmentation average = 0
	minimum = 0
	maximum = 0
Injected packet rate average = 0.0508125
	minimum = 0.045 (at node 2)
	maximum = 0.0635 (at node 9)
Accepted packet rate average = 0.0509375
	minimum = 0.0425 (at node 1)
	maximum = 0.06 (at node 13)
Injected flit rate average = 0.0508125
	minimum = 0.045 (at node 2)
	maximum = 0.0635 (at node 9)
Accepted flit rate average= 0.0509375
	minimum = 0.0425 (at node 1)
	maximum = 0.06 (at node 13)
Injected packet length average = 1
Accepted packet length average = 1
Total in-flight flits = 16 (16 measured)
latency change    = 0.00513069
throughput change = 0.0143149
Draining all recorded packets ...
Draining remaining packets ...
Time taken is 3566 cycles
Class 0:
Packet latency average = 19.9302
	minimum = 7
	maximum = 43
Network latency average = 19.9302
	minimum = 7
	maximum = 43
Slowest packet = 29134
Flit latency average = 19.9302
	minimum = 7
	maximum = 43
Slowest flit = 29134
Fragmentation average = 0
	minimum = 0
	maximum = 0
Injected packet rate average = 0.04675
	minimum = 0.032 (at node 1)
	maximum = 0.072 (at node 4)
Accepted packet rate average = 0.04475
	minimum = 0.032 (at node 1)
	maximum = 0.062 (at node 9)
Injected flit rate average = 0.04675
	minimum = 0.032 (at node 1)
	maximum = 0.072 (at node 4)
Accepted flit rate average= 0.04475
	minimum = 0.032 (at node 1)
	maximum = 0.062 (at node 9)
Injected packet length average = 1
Accepted packet length average = 1
Total in-flight flits = 16 (0 measured)
latency change    = 1
throughput change = 1
Class 0:
Packet latency average = 20.2818
	minimum = 7
	maximum = 43
Network latency average = 20.2818
	minimum = 7
	maximum = 43
Slowest packet = 29134
Flit latency average = 20.2818
	minimum = 7
	maximum = 43
Slowest flit = 29134
Fragmentation average = 0
	minimum = 0
	maximum = 0
Injected packet rate average = 0.04925
	minimum = 0.034 (at node 5)
	maximum = 0.07 (at node 4)
Accepted packet rate average = 0.048125
	minimum = 0.039 (at node 1)
	maximum = 0.058 (at node 10)
Injected flit rate average = 0.04925
	minimum = 0.034 (at node 5)
	maximum = 0.07 (at node 4)
Accepted flit rate average= 0.048125
	minimum = 0.039 (at node 1)
	maximum = 0.058 (at node 10)
Injected packet length average = 1
Accepted packet length average = 1
Total in-flight flits = 18 (0 measured)
latency change    = 0.0173382
throughput change = 0.0701299
Class 0:
Packet latency average = 19.6613
	minimum = 7
	maximum = 50
Network latency average = 19.6613
	minimum = 7
	maximum = 50
Slowest packet = 29858
Flit latency average = 19.6613
	minimum = 7
	maximum = 50
Slowest flit = 29858
Fragmentation average = 0
	minimum = 0
	maximum = 0
Injected packet rate average = 0.047125
	minimum = 0.03 (at node 2)
	maximum = 0.062 (at node 3)
Accepted packet rate average = 0.046875
	minimum = 0.036 (at node 5)
	maximum = 0.06 (at node 15)
Injected flit rate average = 0.047125
	minimum = 0.03 (at node 2)
	maximum = 0.062 (at node 3)
Accepted flit rate average= 0.046875
	minimum = 0.036 (at node 5)
	maximum = 0.06 (at node 15)
Injected packet length average = 1
Accepted packet length average = 1
Total in-flight flits = 20 (0 measured)
latency change    = 0.0315586
throughput change = 0.0266667
Warmed up ...Time used is 1500 cycles
Class 0:
Packet latency average = 20.0242
	minimum = 7
	maximum = 42
Network latency average = 20.0242
	minimum = 7
	maximum = 42
Slowest packet = 30331
Flit latency average = 20.2005
	minimum = 7
	maximum = 42
Slowest flit = 30331
Fragmentation average = 0
	minimum = 0
	maximum = 0
Injected packet rate average = 0.05375
	minimum = 0.03 (at node 6)
	maximum = 0.07 (at node 11)
Accepted packet rate average = 0.05425
	minimum = 0.034 (at node 0)
	maximum = 0.078 (at node 14)
Injected flit rate average = 0.05375
	minimum = 0.03 (at node 6)
	maximum = 0.07 (at node 11)
Accepted flit rate average= 0.05425
	minimum = 0.034 (at node 0)
	maximum = 0.078 (at node 14)
Injected packet length average = 1
Accepted packet length average = 1
Total in-flight flits = 16 (16 measured)
latency change    = 0.0181192
throughput change = 0.135945
Class 0:
Packet latency average = 19.9219
	minimum = 7
	maximum = 43
Network latency average = 19.9219
	minimum = 7
	maximum = 43
Slowest packet = 30820
Flit latency average = 20.0141
	minimum = 7
	maximum = 43
Slowest flit = 30820
Fragmentation average = 0
	minimum = 0
	maximum = 0
Injected packet rate average = 0.0526875
	minimum = 0.041 (at node 6)
	maximum = 0.06 (at node 11)
Accepted packet rate average = 0.05325
	minimum = 0.046 (at node 1)
	maximum = 0.072 (at node 14)
Injected flit rate average = 0.0526875
	minimum = 0.041 (at node 6)
	maximum = 0.06 (at node 11)
Accepted flit rate average= 0.05325
	minimum = 0.046 (at node 1)
	maximum = 0.072 (at node 14)
Injected packet length average = 1
Accepted packet length average = 1
Total in-flight flits = 11 (11 measured)
latency change    = 0.00513403
throughput change = 0.0187793
Class 0:
Packet latency average = 19.6101
	minimum = 7
	maximum = 43
Network latency average = 19.6101
	minimum = 7
	maximum = 43
Slowest packet = 30820
Flit latency average = 19.6782
	minimum = 7
	maximum = 43
Slowest flit = 30820
Fragmentation average = 0
	minimum = 0
	maximum = 0
Injected packet rate average = 0.0515833
	minimum = 0.044 (at node 15)
	maximum = 0.06 (at node 11)
Accepted packet rate average = 0.0519167
	minimum = 0.0453333 (at node 0)
	maximum = 0.0626667 (at node 14)
Injected flit rate average = 0.0515833
	minimum = 0.044 (at node 15)
	maximum = 0.06 (at node 11)
Accepted flit rate average= 0.0519167
	minimum = 0.0453333 (at node 0)
	maximum = 0.0626667 (at node 14)
Injected packet length average = 1
Accepted packet length average = 1
Total in-flight flits = 12 (12 measured)
latency change    = 0.015898
throughput change = 0.0256822
Class 0:
Packet latency average = 19.5716
	minimum = 7
	maximum = 43
Network latency average = 19.5716
	minimum = 7
	maximum = 43
Slowest packet = 30820
Flit latency average = 19.6242
	minimum = 7
	maximum = 43
Slowest flit = 30820
Fragmentation average = 0
	minimum = 0
	maximum = 0
Injected packet rate average = 0.0509375
	minimum = 0.045 (at node 2)
	maximum = 0.062 (at node 11)
Accepted packet rate average = 0.0508125
	minimum = 0.046 (at node 7)
	maximum = 0.061 (at node 14)
Injected flit rate average = 0.0509375
	minimum = 0.045 (at node 2)
	maximum = 0.062 (at node 11)
Accepted flit rate average= 0.0508125
	minimum = 0.046 (at node 7)
	maximum = 0.061 (at node 14)
Injected packet length average = 1
Accepted packet length average = 1
Total in-flight flits = 24 (24 measured)
latency change    = 0.00196753
throughput change = 0.0217302
Draining all recorded packets ...
Draining remaining packets ...
Time taken is 3564 cycles
Class 0:
Packet latency average = 19.9391
	minimum = 7
	maximum = 42
Network latency average = 19.9391
	minimum = 7
	maximum = 42
Slowest packet = 31960
Flit latency average = 19.9391
	minimum = 7
	maximum = 42
Slowest flit = 31960
Fragmentation average = 0
	minimum = 0
	maximum = 0
Injected packet rate average = 0.046625
	minimum = 0.034 (at node 9)
	maximum = 0.078 (at node 14)
Accepted packet rate average = 0.045125
	minimum = 0.022 (at node 0)
	maximum = 0.066 (at node 11)
Injected flit rate average = 0.046625
	minimum = 0.034 (at node 9)
	maximum = 0.078 (at node 14)
Accepted flit rate average= 0.045125
	minimum = 0.022 (at node 0)
	maximum = 0.066 (at node 11)
Injected packet length average = 1
Accepted packet length average = 1
Total in-flight flits = 12 (0 measured)
latency change    = 1
throughput change = 1
Class 0:
Packet latency average = 20.6436
	minimum = 7
	maximum = 51
Network latency average = 20.6436
	minimum = 7
	maximum = 51
Slowest packet = 32343
Flit latency average = 20.6436
	minimum = 7
	maximum = 51
Slowest flit = 32343
Fragmentation average = 0
	minimum = 0
	maximum = 0
Injected packet rate average = 0.0505625
	minimum = 0.039 (at node 11)
	maximum = 0.063 (at node 2)
Accepted packet rate average = 0.049625
	minimum = 0.036 (at node 7)
	maximum = 0.066 (at node 12)
Injected flit rate average = 0.0505625
	minimum = 0.039 (at node 11)
	maximum = 0.063 (at node 2)
Accepted flit rate average= 0.049625
	minimum = 0.036 (at node 7)
	maximum = 0.066 (at node 12)
Injected packet length average = 1
Accepted packet length average = 1
Total in-flight flits = 15 (0 measured)
latency change    = 0.0341277
throughput change = 0.0906801
Class 0:
Packet latency average = 19.9155
	minimum = 7
	maximum = 46
Network latency average = 19.9155
	minimum = 7
	maximum = 46
Slowest packet = 32903
Flit latency average = 19.9155
	minimum = 7
	maximum = 46
Slowest flit = 32903
Fragmentation average = 0
	minimum = 0
	maximum = 0
Injected packet rate average = 0.045875
	minimum = 0.018 (at node 15)
	maximum = 0.064 (at node 0)
Accepted packet rate average = 0.045875
	minimum = 0.026 (at node 11)
	maximum = 0.068 (at node 2)
Injected flit rate average = 0.045875
	minimum = 0.018 (at node 15)
	maximum = 0.064 (at node 0)
Accepted flit rate average= 0.045875
	minimum = 0.026 (at node 11)
	maximum = 0.068 (at node 2)
Injected packet length average = 1
Accepted packet length average = 1
Total in-flight flits = 15 (0 measured)
latency change    = 0.0365567
throughput change = 0.0817439
Warmed up ...Time used is 1500 cycles
Class 0:
Packet latency average = 20.6765
	minimum = 7
	maximum = 45
Network latency average = 20.6765
	minimum = 7
	maximum = 45
Slowest packet = 33379
Flit latency average = 20.769
	minimum = 7
	maximum = 45
Slowest flit = 33379
Fragmentation average = 0
	minimum = 0
	maximum = 0
Injected packet rate average = 0.052125
	minimum = 0.04 (at node 2)
	maximum = 0.074 (at node 12)
Accepted packet rate average = 0.0525
	minimum = 0.04 (at node 1)
	maximum = 0.064 (at node 10)
Injected flit rate average = 0.052125
	minimum = 0.04 (at node 2)
	maximum = 0.074 (at node 12)
Accepted flit rate average= 0.0525
	minimum = 0.04 (at node 1)
	maximum = 0.064 (at node 10)
Injected packet length average = 1
Accepted packet length average = 1
Total in-flight flits = 12 (12 measured)
latency change    = 0.0368056
throughput change = 0.12619
Class 0:
Packet latency average = 19.9559
	minimum = 7
	maximum = 47
Network latency average = 19.9559
	minimum = 7
	maximum = 47
Slowest packet = 33811
Flit latency average = 20.0156
	minimum = 7
	maximum = 47
Slowest flit = 33811
Fragmentation average = 0
	minimum = 0
	maximum = 0
Injected packet rate average = 0.05225
	minimum = 0.041 (at node 1)
	maximum = 0.075 (at node 13)
Accepted packet rate average = 0.0519375
	minimum = 0.041 (at node 8)
	maximum = 0.065 (at node 11)
Injected flit rate average = 0.05225
	minimum = 0.041 (at node 1)
	maximum = 0.075 (at node 13)
Accepted flit rate average= 0.0519375
	minimum = 0.041 (at node 8)
	maximum = 0.065 (at node 11)
Injected packet length average = 1
Accepted packet length average = 1
Total in-flight flits = 20 (20 measured)
latency change    = 0.0361127
throughput change = 0.0108303
Class 0:
Packet latency average = 20.1164
	minimum = 7
	maximum = 51
Network latency average = 20.1164
	minimum = 7
	maximum = 51
Slowest packet = 34057
Flit latency average = 20.1545
	minimum = 7
	maximum = 51
Slowest flit = 34057
Fragmentation average = 0
	minimum = 0
	maximum = 0
Injected packet rate average = 0.052
	minimum = 0.0426667 (at node 0)
	maximum = 0.0706667 (at node 13)
Accepted packet rate average = 0.0517917
	minimum = 0.0413333 (at node 8)
	maximum = 0.0633333 (at node 10)
Injected flit rate average = 0.052
	minimum = 0.0426667 (at node 0)
	maximum = 0.0706667 (at node 13)
Accepted flit rate average= 0.0517917
	minimum = 0.0413333 (at node 8)
	maximum = 0.0633333 (at node 10)
Injected packet length average = 1
Accepted packet length average = 1
Total in-flight flits = 20 (20 measured)
latency change    = 0.00798188
throughput change = 0.00281577
Class 0:
Packet latency average = 20.1404
	minimum = 7
	maximum = 53
Network latency average = 20.1404
	minimum = 7
	maximum = 53
Slowest packet = 34500
Flit latency average = 20.1686
	minimum = 7
	maximum = 53
Slowest flit = 34500
Fragmentation average = 0
	minimum = 0
	maximum = 0
Injected packet rate average = 0.05225
	minimum = 0.0435 (at node 1)
	maximum = 0.0625 (at node 13)
Accepted packet rate average = 0.0520938
	minimum = 0.0415 (at node 8)
	maximum = 0.062 (at node 11)
Injected flit rate average = 0.05225
	minimum = 0.0435 (at node 1)
	maximum = 0.0625 (at node 13)
Accepted flit rate average= 0.0520938
	minimum = 0.0415 (at node 8)
	maximum = 0.062 (at node 11)
Injected packet length average = 1
Accepted packet length average = 1
Total in-flight flits = 20 (20 measured)
latency change    = 0.00119095
throughput change = 0.00579884
Draining all recorded packets ...
Draining remaining packets ...
Time taken is 3552 cycles
Class 0:
Packet latency average = 19.9973
	minimum = 7
	maximum = 42
Network latency average = 19.9973
	minimum = 7
	maximum = 42
Slowest packet = 34776
Flit latency average = 19.9973
	minimum = 7
	maximum = 42
Slowest flit = 34776
Fragmentation average = 0
	minimum = 0
	maximum = 0
Injected packet rate average = 0.048625
	minimum = 0.032 (at node 7)
	maximum = 0.066 (at node 4)
Accepted packet rate average = 0.0465
	minimum = 0.022 (at node 13)
	maximum = 0.064 (at node 2)
Injected flit rate average = 0.048625
	minimum = 0.032 (at node 7)
	maximum = 0.066 (at node 4)
Accepted flit rate average= 0.0465
	minimum = 0.022 (at node 13)
	maximum = 0.064 (at node 2)
Injected packet length average = 1
Accepted packet length average = 1
Total in-flight flits = 17 (0 measured)
latency change    = 1
throughput change = 1
Class 0:
Packet latency average = 20.1782
	minimum = 7
	maximum = 48
Network latency average = 20.1782
	minimum = 7
	maximum = 48
Slowest packet = 35230
Flit latency average = 20.1782
	minimum = 7
	maximum = 48
Slowest flit = 35230
Fragmentation average = 0
	minimum = 0
	maximum = 0
Injected packet rate average = 0.048875
	minimum = 0.037 (at node 7)
	maximum = 0.06 (at node 14)
Accepted packet rate average = 0.0480625
	minimum = 0.027 (at node 13)
	maximum = 0.058 (at node 6)
Injected flit rate average = 0.048875
	minimum = 0.037 (at node 7)
	maximum = 0.06 (at node 14)
Accepted flit rate average= 0.0480625
	minimum = 0.027 (at node 13)
	maximum = 0.058 (at node 6)
Injected packet length average = 1
Accepted packet length average = 1
Total in-flight flits = 13 (0 measured)
latency change    = 0.00896225
throughput change = 0.0325098
Class 0:
Packet latency average = 20.1394
	minimum = 7
	maximum = 43
Network latency average = 20.1394
	minimum = 7
	maximum = 43
Slowest packet = 35513
Flit latency average = 20.1394
	minimum = 7
	maximum = 43
Slowest flit = 35513
Fragmentation average = 0
	minimum = 0
	maximum = 0
Injected packet rate average = 0.05225
	minimum = 0.036 (at node 0)
	maximum = 0.064 (at node 11)
Accepted packet rate average = 0.052
	minimum = 0.036 (at node 2)
	maximum = 0.07 (at node 4)
Injected flit rate average = 0.05225
	minimum = 0.036 (at node 0)
	maximum = 0.064 (at node 11)
Accepted flit rate average= 0.052
	minimum = 0.036 (at node 2)
	maximum = 0.07 (at node 4)
Injected packet length average = 1
Accepted packet length average = 1
Total in-flight flits = 15 (0 measured)
latency change    = 0.00192311
throughput change = 0.0757212
Warmed up ...Time used is 1500 cycles
Class 0:
Packet latency average = 19.7212
	minimum = 7
	maximum = 42
Network latency average = 19.7212
	minimum = 7
	maximum = 42
Slowest packet = 36122
Flit latency average = 19.8943
	minimum = 7
	maximum = 42
Slowest flit = 36122
Fragmentation average = 0
	minimum = 0
	maximum = 0
Injected packet rate average = 0.04875
	minimum = 0.026 (at node 6)
	maximum = 0.064 (at node 4)
Accepted packet rate average = 0.0485
	minimum = 0.034 (at node 1)
	maximum = 0.06 (at node 3)
Injected flit rate average = 0.04875
	minimum = 0.026 (at node 6)
	maximum = 0.064 (at node 4)
Accepted flit rate average= 0.0485
	minimum = 0.034 (at node 1)
	maximum = 0.06 (at node 3)
Injected packet length average = 1
Accepted packet length average = 1
Total in-flight flits = 17 (17 measured)
latency change    = 0.0212078
throughput change = 0.0721649
Class 0:
Packet latency average = 19.8924
	minimum = 7
	maximum = 42
Network latency average = 19.8924
	minimum = 7
	maximum = 42
Slowest packet = 36122
Flit latency average = 19.9717
	minimum = 7
	maximum = 42
Slowest flit = 36122
Fragmentation average = 0
	minimum = 0
	maximum = 0
Injected packet rate average = 0.05125
	minimum = 0.035 (at node 6)
	maximum = 0.064 (at node 15)
Accepted packet rate average = 0.050875
	minimum = 0.041 (at node 1)
	maximum = 0.064 (at node 3)
Injected flit rate average = 0.05125
	minimum = 0.035 (at node 6)
	maximum = 0.064 (at node 15)
Accepted flit rate average= 0.050875
	minimum = 0.041 (at node 1)
	maximum = 0.064 (at node 3)
Injected packet length average = 1
Accepted packet length average = 1
Total in-flight flits = 21 (21 measured)
latency change    = 0.0086056
throughput change = 0.046683
Class 0:
Packet latency average = 20.046
	minimum = 7
	maximum = 46
Network latency average = 20.046
	minimum = 7
	maximum = 46
Slowest packet = 37053
Flit latency average = 20.0958
	minimum = 7
	maximum = 46
Slowest flit = 37053
Fragmentation average = 0
	minimum = 0
	maximum = 0
Injected packet rate average = 0.0520417
	minimum = 0.04 (at node 6)
	maximum = 0.0626667 (at node 7)
Accepted packet rate average = 0.0522083
	minimum = 0.04 (at node 1)
	maximum = 0.062 (at node 3)
Injected flit rate average = 0.0520417
	minimum = 0.04 (at node 6)
	maximum = 0.0626667 (at node 7)
Accepted flit rate average= 0.0522083
	minimum = 0.04 (at node 1)
	maximum = 0.062 (at node 3)
Injected packet length average = 1
Accepted packet length average = 1
Total in-flight flits = 11 (11 measured)
latency change    = 0.00766618
throughput change = 0.0255387
Class 0:
Packet latency average = 19.9229
	minimum = 7
	maximum = 49
Network latency average = 19.9229
	minimum = 7
	maximum = 49
Slowest packet = 37350
Flit latency average = 19.9624
	minimum = 7
[...]
Fragmentation average = 0
	minimum = 0
	maximum = 0
Injected packet rate average = 0.048125
	minimum = 0.034 (at node 11)
	maximum = 0.058 (at node 10)
Accepted packet rate average = 0.048125
	minimum = 0.034 (at node 14)
	maximum = 0.068 (at node 8)
Injected flit rate average = 0.048125
	minimum = 0.034 (at node 11)
	maximum = 0.058 (at node 10)
Accepted flit rate average= 0.048125
	minimum = 0.034 (at node 14)
	maximum = 0.068 (at node 8)
Injected packet length average = 1
Accepted packet length average = 1
Total in-flight flits = 18 (0 measured)
latency change    = 0.00503943
throughput change = 0.012987
Warmed up ...Time used is 1500 cycles
Class 0:
Packet latency average = 20.1995
	minimum = 7
	maximum = 44
Network latency average = 20.1995
	minimum = 7
	maximum = 44
Slowest packet = 127476
Flit latency average = 20.2957
	minimum = 7
	maximum = 44
Slowest flit = 127476
Fragmentation average = 0
	minimum = 0
	maximum = 0
Injected packet rate average = 0.04975
	minimum = 0.03 (at node 5)
	maximum = 0.062 (at node 8)
Accepted packet rate average = 0.049875
	minimum = 0.036 (at node 2)
	maximum = 0.074 (at node 0)
Injected flit rate average = 0.04975
	minimum = 0.03 (at node 5)
	maximum = 0.062 (at node 8)
Accepted flit rate average= 0.049875
	minimum = 0.036 (at node 2)
	maximum = 0.074 (at node 0)
Injected packet length average = 1
Accepted packet length average = 1
Total in-flight flits = 17 (17 measured)
latency change    = 0.0120612
throughput change = 0.0350877
Class 0:
Packet latency average = 20.3098
	minimum = 7
	maximum = 44
Network latency average = 20.3098
	minimum = 7
	maximum = 44
Slowest packet = 127476
Flit latency average = 20.3555
	minimum = 7
	maximum = 44
Slowest flit = 127476
Fragmentation average = 0
	minimum = 0
	maximum = 0
Injected packet rate average = 0.049625
	minimum = 0.038 (at node 4)
	maximum = 0.061 (at node 0)
Accepted packet rate average = 0.04975
	minimum = 0.037 (at node 15)
	maximum = 0.067 (at node 0)
Injected flit rate average = 0.049625
	minimum = 0.038 (at node 4)
	maximum = 0.061 (at node 0)
Accepted flit rate average= 0.04975
	minimum = 0.037 (at node 15)
	maximum = 0.067 (at node 0)
Injected packet length average = 1
Accepted packet length average = 1
Total in-flight flits = 16 (16 measured)
latency change    = 0.00543057
throughput change = 0.00251256
Class 0:
Packet latency average = 20.2714
	minimum = 7
	maximum = 44
Network latency average = 20.2714
	minimum = 7
	maximum = 44
Slowest packet = 127476
Flit latency average = 20.3024
	minimum = 7
	maximum = 44
Slowest flit = 127476
Fragmentation average = 0
	minimum = 0
	maximum = 0
Injected packet rate average = 0.0499167
	minimum = 0.04 (at node 4)
	maximum = 0.0626667 (at node 0)
Accepted packet rate average = 0.049875
	minimum = 0.0386667 (at node 9)
	maximum = 0.0613333 (at node 0)
Injected flit rate average = 0.0499167
	minimum = 0.04 (at node 4)
	maximum = 0.0626667 (at node 0)
Accepted flit rate average= 0.049875
	minimum = 0.0386667 (at node 9)
	maximum = 0.0613333 (at node 0)
Injected packet length average = 1
Accepted packet length average = 1
Total in-flight flits = 19 (19 measured)
latency change    = 0.00189193
throughput change = 0.00250627
Draining all recorded packets ...
Draining remaining packets ...
Time taken is 3070 cycles
Class 0:
Packet latency average = 20.2108
	minimum = 7
	maximum = 42
Network latency average = 20.2108
	minimum = 7
	maximum = 42
Slowest packet = 128672
Flit latency average = 20.2108
	minimum = 7
	maximum = 42
Slowest flit = 128672
Fragmentation average = 0
	minimum = 0
	maximum = 0
Injected packet rate average = 0.050625
	minimum = 0.036 (at node 14)
	maximum = 0.066 (at node 0)
Accepted packet rate average = 0.048625
	minimum = 0.034 (at node 9)
	maximum = 0.074 (at node 14)
Injected flit rate average = 0.050625
	minimum = 0.036 (at node 14)
	maximum = 0.066 (at node 0)
Accepted flit rate average= 0.048625
	minimum = 0.034 (at node 9)
	maximum = 0.074 (at node 14)
Injected packet length average = 1
Accepted packet length average = 1
Total in-flight flits = 16 (0 measured)
latency change    = 1
throughput change = 1
Class 0:
Packet latency average = 20.0825
	minimum = 7
	maximum = 44
Network latency average = 20.0825
	minimum = 7
	maximum = 44
Slowest packet = 129320
Flit latency average = 20.0825
	minimum = 7
	maximum = 44
Slowest flit = 129320
Fragmentation average = 0
	minimum = 0
	maximum = 0
Injected packet rate average = 0.0515
	minimum = 0.039 (at node 14)
	maximum = 0.063 (at node 0)
Accepted packet rate average = 0.05075
	minimum = 0.033 (at node 2)
	maximum = 0.072 (at node 14)
Injected flit rate average = 0.0515
	minimum = 0.039 (at node 14)
	maximum = 0.063 (at node 0)
Accepted flit rate average= 0.05075
	minimum = 0.033 (at node 2)
	maximum = 0.072 (at node 14)
Injected packet length average = 1
Accepted packet length average = 1
Total in-flight flits = 12 (0 measured)
latency change    = 0.00638788
throughput change = 0.0418719
Class 0:
Packet latency average = 19.8109
	minimum = 7
	maximum = 39
Network latency average = 19.8109
	minimum = 7
	maximum = 39
Slowest packet = 129626
Flit latency average = 19.8109
	minimum = 7
	maximum = 39
Slowest flit = 129626
Fragmentation average = 0
	minimum = 0
	maximum = 0
Injected packet rate average = 0.051
	minimum = 0.032 (at node 13)
	maximum = 0.068 (at node 1)
Accepted packet rate average = 0.05025
	minimum = 0.038 (at node 7)
	maximum = 0.068 (at node 4)
Injected flit rate average = 0.051
	minimum = 0.032 (at node 13)
	maximum = 0.068 (at node 1)
Accepted flit rate average= 0.05025
	minimum = 0.038 (at node 7)
	maximum = 0.068 (at node 4)
Injected packet length average = 1
Accepted packet length average = 1
Total in-flight flits = 18 (0 measured)
latency change    = 0.0137079
throughput change = 0.00995025
Warmed up ...Time used is 1500 cycles
Class 0:
Packet latency average = 20.5315
	minimum = 7
	maximum = 49
Network latency average = 20.5315
	minimum = 7
	maximum = 49
Slowest packet = 130091
Flit latency average = 20.5952
	minimum = 7
	maximum = 49
Slowest flit = 130091
Fragmentation average = 0
	minimum = 0
	maximum = 0
Injected packet rate average = 0.051625
	minimum = 0.026 (at node 0)
	maximum = 0.086 (at node 11)
Accepted packet rate average = 0.051875
	minimum = 0.036 (at node 4)
	maximum = 0.08 (at node 15)
Injected flit rate average = 0.051625
	minimum = 0.026 (at node 0)
	maximum = 0.086 (at node 11)
Accepted flit rate average= 0.051875
	minimum = 0.036 (at node 4)
	maximum = 0.08 (at node 15)
Injected packet length average = 1
Accepted packet length average = 1
Total in-flight flits = 16 (16 measured)
latency change    = 0.0350944
throughput change = 0.0313253
Class 0:
Packet latency average = 20.0855
	minimum = 7
	maximum = 49
Network latency average = 20.0855
	minimum = 7
	maximum = 49
Slowest packet = 130091
Flit latency average = 20.1262
	minimum = 7
	maximum = 49
Slowest flit = 130091
Fragmentation average = 0
	minimum = 0
	maximum = 0
Injected packet rate average = 0.0529375
	minimum = 0.036 (at node 0)
	maximum = 0.069 (at node 11)
Accepted packet rate average = 0.053
	minimum = 0.044 (at node 12)
	maximum = 0.07 (at node 1)
Injected flit rate average = 0.0529375
	minimum = 0.036 (at node 0)
	maximum = 0.069 (at node 11)
Accepted flit rate average= 0.053
	minimum = 0.044 (at node 12)
	maximum = 0.07 (at node 1)
Injected packet length average = 1
Accepted packet length average = 1
Total in-flight flits = 17 (17 measured)
latency change    = 0.0222022
throughput change = 0.0212264
Class 0:
Packet latency average = 20.0361
	minimum = 7
	maximum = 49
Network latency average = 20.0361
	minimum = 7
	maximum = 49
Slowest packet = 130091
Flit latency average = 20.0646
	minimum = 7
	maximum = 49
Slowest flit = 130091
Fragmentation average = 0
	minimum = 0
	maximum = 0
Injected packet rate average = 0.0515833
	minimum = 0.0426667 (at node 0)
	maximum = 0.066 (at node 10)
Accepted packet rate average = 0.0515833
	minimum = 0.0433333 (at node 7)
	maximum = 0.064 (at node 15)
Injected flit rate average = 0.0515833
	minimum = 0.0426667 (at node 0)
	maximum = 0.066 (at node 10)
Accepted flit rate average= 0.0515833
	minimum = 0.0433333 (at node 7)
	maximum = 0.064 (at node 15)
Injected packet length average = 1
Accepted packet length average = 1
Total in-flight flits = 18 (18 measured)
latency change    = 0.00246938
throughput change = 0.0274637
Draining all recorded packets ...
Draining remaining packets ...
Time taken is 3063 cycles
Class 0:
Packet latency average = 19.9784
	minimum = 7
	maximum = 49
Network latency average = 19.9784
	minimum = 7
	maximum = 49
Slowest packet = 131130
Flit latency average = 19.9784
	minimum = 7
	maximum = 49
Slowest flit = 131130
Fragmentation average = 0
	minimum = 0
	maximum = 0
Injected packet rate average = 0.04875
	minimum = 0.038 (at node 13)
	maximum = 0.062 (at node 11)
Accepted packet rate average = 0.046375
	minimum = 0.032 (at node 9)
	maximum = 0.062 (at node 3)
Injected flit rate average = 0.04875
	minimum = 0.038 (at node 13)
	maximum = 0.062 (at node 11)
Accepted flit rate average= 0.046375
	minimum = 0.032 (at node 9)
	maximum = 0.062 (at node 3)
Injected packet length average = 1
Accepted packet length average = 1
Total in-flight flits = 19 (0 measured)
latency change    = 1
throughput change = 1
Class 0:
Packet latency average = 20.1019
	minimum = 7
	maximum = 49
Network latency average = 20.1019
	minimum = 7
	maximum = 49
Slowest packet = 131130
Flit latency average = 20.1019
	minimum = 7
	maximum = 49
Slowest flit = 131130
Fragmentation average = 0
	minimum = 0
	maximum = 0
Injected packet rate average = 0.0510625
	minimum = 0.041 (at node 12)
	maximum = 0.065 (at node 11)
Accepted packet rate average = 0.0496875
	minimum = 0.04 (at node 13)
	maximum = 0.061 (at node 7)
Injected flit rate average = 0.0510625
	minimum = 0.041 (at node 12)
	maximum = 0.065 (at node 11)
Accepted flit rate average= 0.0496875
	minimum = 0.04 (at node 13)
	maximum = 0.061 (at node 7)
Injected packet length average = 1
Accepted packet length average = 1
Total in-flight flits = 22 (0 measured)
latency change    = 0.00614122
throughput change = 0.0666667
Class 0:
Packet latency average = 20.0364
	minimum = 7
	maximum = 46
Network latency average = 20.0364
	minimum = 7
	maximum = 46
Slowest packet = 131848
Flit latency average = 20.0364
	minimum = 7
	maximum = 46
Slowest flit = 131848
Fragmentation average = 0
	minimum = 0
	maximum = 0
Injected packet rate average = 0.050375
	minimum = 0.03 (at node 2)
	maximum = 0.068 (at node 9)
Accepted packet rate average = 0.0515
	minimum = 0.04 (at node 15)
	maximum = 0.07 (at node 4)
Injected flit rate average = 0.050375
	minimum = 0.03 (at node 2)
	maximum = 0.068 (at node 9)
Accepted flit rate average= 0.0515
	minimum = 0.04 (at node 15)
	maximum = 0.07 (at node 4)
Injected packet length average = 1
Accepted packet length average = 1
Total in-flight flits = 13 (0 measured)
latency change    = 0.003268
throughput change = 0.0351942
Warmed up ...Time used is 1500 cycles
Class 0:
Packet latency average = 19.7565
	minimum = 7
	maximum = 42
Network latency average = 19.7565
	minimum = 7
	maximum = 42
Slowest packet = 132424
Flit latency average = 19.802
	minimum = 7
	maximum = 42
Slowest flit = 132424
Fragmentation average = 0
	minimum = 0
	maximum = 0
Injected packet rate average = 0.05
	minimum = 0.03 (at node 14)
	maximum = 0.074 (at node 7)
Accepted packet rate average = 0.049875
	minimum = 0.038 (at node 9)
	maximum = 0.064 (at node 6)
Injected flit rate average = 0.05
	minimum = 0.03 (at node 14)
	maximum = 0.074 (at node 7)
Accepted flit rate average= 0.049875
	minimum = 0.038 (at node 9)
	maximum = 0.064 (at node 6)
Injected packet length average = 1
Accepted packet length average = 1
Total in-flight flits = 14 (14 measured)
latency change    = 0.0141691
throughput change = 0.0325815
Class 0:
Packet latency average = 20.2382
	minimum = 7
	maximum = 44
Network latency average = 20.2382
	minimum = 7
	maximum = 44
Slowest packet = 132749
Flit latency average = 20.2528
	minimum = 7
	maximum = 44
Slowest flit = 132749
Fragmentation average = 0
	minimum = 0
	maximum = 0
Injected packet rate average = 0.05125
	minimum = 0.044 (at node 1)
	maximum = 0.063 (at node 3)
Accepted packet rate average = 0.0509375
	minimum = 0.04 (at node 15)
	maximum = 0.065 (at node 8)
Injected flit rate average = 0.05125
	minimum = 0.044 (at node 1)
	maximum = 0.063 (at node 3)
Accepted flit rate average= 0.0509375
	minimum = 0.04 (at node 15)
	maximum = 0.065 (at node 8)
Injected packet length average = 1
Accepted packet length average = 1
Total in-flight flits = 18 (18 measured)
latency change    = 0.0238005
throughput change = 0.0208589
Class 0:
Packet latency average = 20.1002
	minimum = 7
	maximum = 44
Network latency average = 20.1002
	minimum = 7
	maximum = 44
Slowest packet = 132749
Flit latency average = 20.1118
	minimum = 7
	maximum = 44
Slowest flit = 132749
Fragmentation average = 0
	minimum = 0
	maximum = 0
Injected packet rate average = 0.049375
	minimum = 0.042 (at node 0)
	maximum = 0.0626667 (at node 6)
Accepted packet rate average = 0.0492083
	minimum = 0.0373333 (at node 15)
	maximum = 0.0613333 (at node 8)
Injected flit rate average = 0.049375
	minimum = 0.042 (at node 0)
	maximum = 0.0626667 (at node 6)
Accepted flit rate average= 0.0492083
	minimum = 0.0373333 (at node 15)
	maximum = 0.0613333 (at node 8)
Injected packet length average = 1
Accepted packet length average = 1
Total in-flight flits = 17 (17 measured)
latency change    = 0.00686479
throughput change = 0.0351397
Draining all recorded packets ...
Draining remaining packets ...
Time taken is 3066 cycles
Class 0:
Packet latency average = 19.6111
	minimum = 7
	maximum = 43
Network latency average = 19.6111
	minimum = 7
	maximum = 43
Slowest packet = 133682
Flit latency average = 19.6111
	minimum = 7
	maximum = 43
Slowest flit = 133682
Fragmentation average = 0
	minimum = 0
	maximum = 0
Injected packet rate average = 0.049375
	minimum = 0.032 (at node 11)
	maximum = 0.058 (at node 4)
Accepted packet rate average = 0.04725
	minimum = 0.024 (at node 8)
	maximum = 0.066 (at node 0)
Injected flit rate average = 0.049375
	minimum = 0.032 (at node 11)
	maximum = 0.058 (at node 4)
Accepted flit rate average= 0.04725
	minimum = 0.024 (at node 8)
	maximum = 0.066 (at node 0)
Injected packet length average = 1
Accepted packet length average = 1
Total in-flight flits = 17 (0 measured)
latency change    = 1
throughput change = 1
Class 0:
Packet latency average = 19.6302
	minimum = 7
	maximum = 48
Network latency average = 19.6302
	minimum = 7
	maximum = 48
Slowest packet = 134098
Flit latency average = 19.6302
	minimum = 7
	maximum = 48
Slowest flit = 134098
Fragmentation average = 0
	minimum = 0
	maximum = 0
Injected packet rate average = 0.0503125
	minimum = 0.04 (at node 6)
	maximum = 0.058 (at node 14)
Accepted packet rate average = 0.0491875
	minimum = 0.038 (at node 11)
	maximum = 0.064 (at node 0)
Injected flit rate average = 0.0503125
	minimum = 0.04 (at node 6)
	maximum = 0.058 (at node 14)
Accepted flit rate average= 0.0491875
	minimum = 0.038 (at node 11)
	maximum = 0.064 (at node 0)
Injected packet length average = 1
Accepted packet length average = 1
Total in-flight flits = 18 (0 measured)
latency change    = 0.000974533
throughput change = 0.0393901
Class 0:
Packet latency average = 20.4238
	minimum = 7
	maximum = 55
Network latency average = 20.4238
	minimum = 7
	maximum = 55
Slowest packet = 134640
Flit latency average = 20.4238
	minimum = 7
	maximum = 55
Slowest flit = 134640
Fragmentation average = 0
	minimum = 0
	maximum = 0
Injected packet rate average = 0.0525
	minimum = 0.034 (at node 13)
	maximum = 0.08 (at node 4)
Accepted packet rate average = 0.0525
	minimum = 0.038 (at node 4)
	maximum = 0.09 (at node 10)
Injected flit rate average = 0.0525
	minimum = 0.034 (at node 13)
	maximum = 0.08 (at node 4)
Accepted flit rate average= 0.0525
	minimum = 0.038 (at node 4)
	maximum = 0.09 (at node 10)
Injected packet length average = 1
Accepted packet length average = 1
Total in-flight flits = 18 (0 measured)
latency change    = 0.038855
throughput change = 0.0630952
Warmed up ...Time used is 1500 cycles
Class 0:
Packet latency average = 19.614
	minimum = 7
	maximum = 40
Network latency average = 19.614
	minimum = 7
	maximum = 40
Slowest packet = 135063
Flit latency average = 19.7178
	minimum = 7
	maximum = 40
Slowest flit = 135063
Fragmentation average = 0
	minimum = 0
	maximum = 0
Injected packet rate average = 0.05025
	minimum = 0.03 (at node 8)
	maximum = 0.074 (at node 10)
Accepted packet rate average = 0.0505
	minimum = 0.03 (at node 6)
	maximum = 0.068 (at node 1)
Injected flit rate average = 0.05025
	minimum = 0.03 (at node 8)
	maximum = 0.074 (at node 10)
Accepted flit rate average= 0.0505
	minimum = 0.03 (at node 6)
	maximum = 0.068 (at node 1)
Injected packet length average = 1
Accepted packet length average = 1
Total in-flight flits = 16 (16 measured)
latency change    = 0.0412879
throughput change = 0.039604
Class 0:
Packet latency average = 20.2195
	minimum = 7
	maximum = 43
Network latency average = 20.2195
	minimum = 7
	maximum = 43
Slowest packet = 135371
Flit latency average = 20.2585
	minimum = 7
	maximum = 43
Slowest flit = 135371
Fragmentation average = 0
	minimum = 0
	maximum = 0
Injected packet rate average = 0.0499375
	minimum = 0.041 (at node 2)
	maximum = 0.057 (at node 12)
Accepted packet rate average = 0.0498125
	minimum = 0.038 (at node 15)
	maximum = 0.065 (at node 7)
Injected flit rate average = 0.0499375
	minimum = 0.041 (at node 2)
	maximum = 0.057 (at node 12)
Accepted flit rate average= 0.0498125
	minimum = 0.038 (at node 15)
	maximum = 0.065 (at node 7)
Injected packet length average = 1
Accepted packet length average = 1
Total in-flight flits = 20 (20 measured)
latency change    = 0.0299474
throughput change = 0.0138018
Class 0:
Packet latency average = 20.0898
	minimum = 7
	maximum = 49
Network latency average = 20.0898
	minimum = 7
	maximum = 49
Slowest packet = 135815
Flit latency average = 20.1174
	minimum = 7
	maximum = 49
Slowest flit = 135815
Fragmentation average = 0
	minimum = 0
	maximum = 0
Injected packet rate average = 0.0505833
	minimum = 0.0433333 (at node 6)
	maximum = 0.056 (at node 9)
Accepted packet rate average = 0.0504167
	minimum = 0.0373333 (at node 15)
	maximum = 0.062 (at node 7)
Injected flit rate average = 0.0505833
	minimum = 0.0433333 (at node 6)
	maximum = 0.056 (at node 9)
Accepted flit rate average= 0.0504167
	minimum = 0.0373333 (at node 15)
	maximum = 0.062 (at node 7)
Injected packet length average = 1
Accepted packet length average = 1
Total in-flight flits = 22 (22 measured)
latency change    = 0.00645837
throughput change = 0.0119835
Draining all recorded packets ...
Draining remaining packets ...
Time taken is 3062 cycles
====== Overall Traffic Statistics ======
====== Traffic class 0 ======
Packet latency average = 20.2294 (50 samples)
	minimum = 7 (50 samples)
	maximum = 51.92 (50 samples)
Network latency average = 20.2293 (50 samples)
	minimum = 7 (50 samples)
	maximum = 51.92 (50 samples)
Flit latency average = 20.2634 (50 samples)
	minimum = 7 (50 samples)
	maximum = 52.22 (50 samples)
Fragmentation average = 0 (50 samples)
	minimum = 0 (50 samples)
	maximum = 0 (50 samples)
Injected packet rate average = 0.0501461 (50 samples)
	minimum = 0.0415147 (50 samples)
	maximum = 0.0593833 (50 samples)
Accepted packet rate average = 0.050129 (50 samples)
	minimum = 0.0407247 (50 samples)
	maximum = 0.0595993 (50 samples)
Injected flit rate average = 0.0501461 (50 samples)
	minimum = 0.0415147 (50 samples)
	maximum = 0.0593833 (50 samples)
Accepted flit rate average = 0.050129 (50 samples)
	minimum = 0.0407247 (50 samples)
	maximum = 0.0595993 (50 samples)
Injected packet size average = 1 (50 samples)
Accepted packet size average = 1 (50 samples)
Hops average = 3.48926 (50 samples)
Total run time 1.98888
