BEGIN Configuration File: /tmp/tmp9qyco_0d.cfg
topology = mesh;
k = 4;
n = 2;
routing_function = planar_adapt;
num_vcs = 4;
vc_buf_size = 4;
wait_for_tail_credit = 1;
vc_allocator = islip;
sw_allocator = islip;
alloc_iters = 1;
credit_delay = 2;
routing_delay = 1;
vc_alloc_delay = 1;
sw_alloc_delay = 1;
input_speedup = 2;
output_speedup = 1;
internal_speedup = 1.0;
traffic = transpose;
packet_size = 1;
sim_type = latency;
injection_rate = 0.05;
warmup_periods = 3;
sample_period = 500;
sim_count = 50;
seed = 0;
link_failures = 2;
fail_seed = 101;

END Configuration File: /tmp/tmp9qyco_0d.cfg
failure at node 14, channel 0 (1/2)
failure at node 12, channel 0 (2/2)
Class 0:
Packet latency average = 25.0981
	minimum = 7
	maximum = 156
Network latency average = 24.992
	minimum = 7
	maximum = 156
Slowest packet = 230
Flit latency average = 24.992
	minimum = 7
	maximum = 156
Slowest flit = 230
Fragmentation average = 0
	minimum = 0
	maximum = 0
Injected packet rate average = 0.049625
	minimum = 0.036 (at node 8)
	maximum = 0.072 (at node 12)
Accepted packet rate average = 0.047125
	minimum = 0.032 (at node 2)
	maximum = 0.062 (at node 3)
Injected flit rate average = 0.049625
	minimum = 0.036 (at node 8)
	maximum = 0.072 (at node 12)
Accepted flit rate average= 0.047125
	minimum = 0.032 (at node 2)
	maximum = 0.062 (at node 3)
Injected packet length average = 1
Accepted packet length average = 1
Total in-flight flits = 20 (0 measured)
latency change    = 1
throughput change = 1
Class 0:
Packet latency average = 25
	minimum = 7
	maximum = 195
Network latency average = 24.7451
	minimum = 7
	maximum = 195
Slowest packet = 231
Flit latency average = 24.7451
	minimum = 7
	maximum = 195
Slowest flit = 231
Fragmentation average = 0
	minimum = 0
	maximum = 0
Injected packet rate average = 0.048875
	minimum = 0.041 (at node 5)
	maximum = 0.06 (at node 12)
Accepted packet rate average = 0.0480625
	minimum = 0.041 (at node 5)
	maximum = 0.059 (at node 3)
Injected flit rate average = 0.048875
	minimum = 0.041 (at node 5)
	maximum = 0.06 (at node 12)
Accepted flit rate average= 0.0480625
	minimum = 0.041 (at node 5)
	maximum = 0.059 (at node 3)
Injected packet length average = 1
Accepted packet length average = 1
Total in-flight flits = 13 (0 measured)
latency change    = 0.00392573
throughput change = 0.0195059
Class 0:
Packet latency average = 24.6571
	minimum = 7
	maximum = 198
Network latency average = 24.6234
	minimum = 7
	maximum = 198
Slowest packet = 1014
Flit latency average = 24.6234
	minimum = 7
	maximum = 198
Slowest flit = 1014
Fragmentation average = 0
	minimum = 0
	maximum = 0
Injected packet rate average = 0.04975
	minimum = 0.036 (at node 11)
	maximum = 0.062 (at node 12)
Accepted packet rate average = 0.048125
	minimum = 0.036 (at node 4)
	maximum = 0.062 (at node 11)
Injected flit rate average = 0.04975
	minimum = 0.036 (at node 11)
	maximum = 0.062 (at node 12)
Accepted flit rate average= 0.048125
	minimum = 0.036 (at node 4)
	maximum = 0.062 (at node 11)
Injected packet length average = 1
Accepted packet length average = 1
Total in-flight flits = 27 (0 measured)
latency change    = 0.013905
throughput change = 0.0012987
Warmed up ...Time used is 1500 cycles
Class 0:
Packet latency average = 27.4038
	minimum = 7
	maximum = 233
Network latency average = 26.4959
	minimum = 7
	maximum = 164
Slowest packet = 1203
Flit latency average = 28.7298
	minimum = 7
	maximum = 164
Slowest flit = 1256
Fragmentation average = 0
	minimum = 0
	maximum = 0
Injected packet rate average = 0.048875
	minimum = 0.034 (at node 6)
	maximum = 0.064 (at node 0)
Accepted packet rate average = 0.0495
	minimum = 0.034 (at node 9)
	maximum = 0.066 (at node 0)
Injected flit rate average = 0.048875
	minimum = 0.034 (at node 6)
	maximum = 0.064 (at node 0)
Accepted flit rate average= 0.0495
	minimum = 0.034 (at node 9)
	maximum = 0.066 (at node 0)
Injected packet length average = 1
Accepted packet length average = 1
Total in-flight flits = 22 (22 measured)
latency change    = 0.100229
throughput change = 0.0277778
Class 0:
Packet latency average = 29.409
	minimum = 7
	maximum = 268
Network latency average = 28.0205
	minimum = 7
	maximum = 221
Slowest packet = 1203
Flit latency average = 29.0657
	minimum = 7
	maximum = 221
Slowest flit = 1678
Fragmentation average = 0
	minimum = 0
	maximum = 0
Injected packet rate average = 0.0505625
	minimum = 0.038 (at node 6)
	maximum = 0.065 (at node 3)
Accepted packet rate average = 0.0504375
	minimum = 0.038 (at node 9)
	maximum = 0.065 (at node 12)
Injected flit rate average = 0.0505625
	minimum = 0.038 (at node 6)
	maximum = 0.065 (at node 3)
Accepted flit rate average= 0.0504375
	minimum = 0.038 (at node 9)
	maximum = 0.065 (at node 12)
Injected packet length average = 1
Accepted packet length average = 1
Total in-flight flits = 30 (30 measured)
latency change    = 0.0681826
throughput change = 0.0185874
Class 0:
Packet latency average = 31.4624
	minimum = 7
	maximum = 281
Network latency average = 29.0498
	minimum = 7
	maximum = 221
Slowest packet = 1203
Flit latency average = 29.7228
	minimum = 7
	maximum = 221
Slowest flit = 1678
Fragmentation average = 0
	minimum = 0
	maximum = 0
Injected packet rate average = 0.0507083
	minimum = 0.0413333 (at node 6)
	maximum = 0.062 (at node 3)
Accepted packet rate average = 0.0505
	minimum = 0.04 (at node 9)
	maximum = 0.0593333 (at node 12)
Injected flit rate average = 0.0507083
	minimum = 0.0413333 (at node 6)
	maximum = 0.062 (at node 3)
Accepted flit rate average= 0.0505
	minimum = 0.04 (at node 9)
	maximum = 0.0593333 (at node 12)
Injected packet length average = 1
Accepted packet length average = 1
Total in-flight flits = 32 (32 measured)
latency change    = 0.0652674
throughput change = 0.00123762
Class 0:
Packet latency average = 32.3123
	minimum = 7
	maximum = 312
Network latency average = 29.6922
	minimum = 7
	maximum = 252
Slowest packet = 1203
Flit latency average = 30.1883
	minimum = 7
	maximum = 252
Slowest flit = 2296
Fragmentation average = 0
	minimum = 0
	maximum = 0
Injected packet rate average = 0.050125
	minimum = 0.0425 (at node 6)
	maximum = 0.0585 (at node 3)
Accepted packet rate average = 0.0502812
	minimum = 0.042 (at node 9)
	maximum = 0.059 (at node 12)
Injected flit rate average = 0.050125
	minimum = 0.0425 (at node 6)
	maximum = 0.0585 (at node 3)
Accepted flit rate average= 0.0502812
	minimum = 0.042 (at node 9)
	maximum = 0.059 (at node 12)
Injected packet length average = 1
Accepted packet length average = 1
Total in-flight flits = 22 (22 measured)
latency change    = 0.0263001
throughput change = 0.00435053
Class 0:
Packet latency average = 34.2167
	minimum = 7
	maximum = 393
Network latency average = 29.6224
	minimum = 7
	maximum = 252
Slowest packet = 1203
Flit latency average = 30.0257
	minimum = 7
	maximum = 252
Slowest flit = 2296
Fragmentation average = 0
	minimum = 0
	maximum = 0
Injected packet rate average = 0.04945
	minimum = 0.0412 (at node 6)
	maximum = 0.0576 (at node 3)
Accepted packet rate average = 0.0496
	minimum = 0.0408 (at node 9)
	maximum = 0.058 (at node 12)
Injected flit rate average = 0.04945
	minimum = 0.0412 (at node 6)
	maximum = 0.0576 (at node 3)
Accepted flit rate average= 0.0496
	minimum = 0.0408 (at node 9)
	maximum = 0.058 (at node 12)
Injected packet length average = 1
Accepted packet length average = 1
Total in-flight flits = 21 (21 measured)
latency change    = 0.055657
throughput change = 0.0137349
Class 0:
Packet latency average = 34.9357
	minimum = 7
	maximum = 410
Network latency average = 29.5345
	minimum = 7
	maximum = 252
Slowest packet = 1203
Flit latency average = 29.8746
	minimum = 7
	maximum = 252
Slowest flit = 2296
Fragmentation average = 0
	minimum = 0
	maximum = 0
Injected packet rate average = 0.0490417
	minimum = 0.0393333 (at node 6)
	maximum = 0.057 (at node 3)
Accepted packet rate average = 0.0491667
	minimum = 0.0393333 (at node 9)
	maximum = 0.0563333 (at node 12)
Injected flit rate average = 0.0490417
	minimum = 0.0393333 (at node 6)
	maximum = 0.057 (at node 3)
Accepted flit rate average= 0.0491667
	minimum = 0.0393333 (at node 9)
	maximum = 0.0563333 (at node 12)
Injected packet length average = 1
Accepted packet length average = 1
Total in-flight flits = 21 (21 measured)
latency change    = 0.020582
throughput change = 0.00881356
Class 0:
Packet latency average = 36.5333
	minimum = 7
	maximum = 483
Network latency average = 29.5885
	minimum = 7
	maximum = 252
Slowest packet = 1203
Flit latency average = 29.8805
	minimum = 7
	maximum = 252
Slowest flit = 2296
Fragmentation average = 0
	minimum = 0
	maximum = 0
Injected packet rate average = 0.0488571
	minimum = 0.0377143 (at node 6)
	maximum = 0.0557143 (at node 3)
Accepted packet rate average = 0.049
	minimum = 0.0377143 (at node 9)
	maximum = 0.056 (at node 12)
Injected flit rate average = 0.0488571
	minimum = 0.0377143 (at node 6)
	maximum = 0.0557143 (at node 3)
Accepted flit rate average= 0.049
	minimum = 0.0377143 (at node 9)
	maximum = 0.056 (at node 12)
Injected packet length average = 1
Accepted packet length average = 1
Total in-flight flits = 19 (19 measured)
latency change    = 0.0437301
throughput change = 0.00340136
Draining all recorded packets ...
Draining remaining packets ...
Time taken is 5761 cycles
Class 0:
Packet latency average = 25.5826
	minimum = 7
	maximum = 141
Network latency average = 24.9048
	minimum = 7
	maximum = 141
Slowest packet = 4657
Flit latency average = 24.9048
	minimum = 7
	maximum = 141
Slowest flit = 4657
Fragmentation average = 0
	minimum = 0
	maximum = 0
Injected packet rate average = 0.048375
	minimum = 0.034 (at node 3)
	maximum = 0.064 (at node 9)
Accepted packet rate average = 0.044625
	minimum = 0.024 (at node 7)
	maximum = 0.06 (at node 0)
Injected flit rate average = 0.048375
	minimum = 0.034 (at node 3)
	maximum = 0.064 (at node 9)
Accepted flit rate average= 0.044625
	minimum = 0.024 (at node 7)
	maximum = 0.06 (at node 0)
Injected packet length average = 1
Accepted packet length average = 1
Total in-flight flits = 33 (0 measured)
latency change    = 1
throughput change = 1
Class 0:
Packet latency average = 36.7074
	minimum = 7
	maximum = 421
Network latency average = 31.0177
	minimum = 7
	maximum = 267
Slowest packet = 4705
Flit latency average = 31.0177
	minimum = 7
	maximum = 267
Slowest flit = 4873
Fragmentation average = 0
	minimum = 0
	maximum = 0
Injected packet rate average = 0.05125
	minimum = 0.036 (at node 13)
	maximum = 0.07 (at node 12)
Accepted packet rate average = 0.0495625
	minimum = 0.03 (at node 7)
	maximum = 0.064 (at node 3)
Injected flit rate average = 0.05125
	minimum = 0.036 (at node 13)
	maximum = 0.07 (at node 12)
Accepted flit rate average= 0.0495625
	minimum = 0.03 (at node 7)
	maximum = 0.064 (at node 3)
Injected packet length average = 1
Accepted packet length average = 1
Total in-flight flits = 28 (0 measured)
latency change    = 0.303067
throughput change = 0.0996217
Class 0:
Packet latency average = 44.6971
	minimum = 7
	maximum = 442
Network latency average = 31.6188
	minimum = 7
	maximum = 245
Slowest packet = 5172
Flit latency average = 31.6188
	minimum = 7
	maximum = 245
Slowest flit = 5122
Fragmentation average = 0
	minimum = 0
	maximum = 0
Injected packet rate average = 0.0475
	minimum = 0.032 (at node 6)
	maximum = 0.072 (at node 10)
Accepted packet rate average = 0.047875
	minimum = 0.034 (at node 9)
	maximum = 0.072 (at node 10)
Injected flit rate average = 0.0475
	minimum = 0.032 (at node 6)
	maximum = 0.072 (at node 10)
Accepted flit rate average= 0.047875
	minimum = 0.034 (at node 9)
	maximum = 0.072 (at node 10)
Injected packet length average = 1
Accepted packet length average = 1
Total in-flight flits = 25 (0 measured)
latency change    = 0.178752
throughput change = 0.035248
Warmed up ...Time used is 1500 cycles
Class 0:
Packet latency average = 30.5201
	minimum = 7
	maximum = 322
Network latency average = 28.6131
	minimum = 7
	maximum = 262
Slowest packet = 5656
Flit latency average = 30.3404
	minimum = 7
	maximum = 262
Slowest flit = 5677
Fragmentation average = 0
	minimum = 0
	maximum = 0
Injected packet rate average = 0.053375
	minimum = 0.04 (at node 5)
	maximum = 0.066 (at node 2)
Accepted packet rate average = 0.052875
	minimum = 0.04 (at node 5)
	maximum = 0.066 (at node 0)
Injected flit rate average = 0.053375
	minimum = 0.04 (at node 5)
	maximum = 0.066 (at node 2)
Accepted flit rate average= 0.052875
	minimum = 0.04 (at node 5)
	maximum = 0.066 (at node 0)
Injected packet length average = 1
Accepted packet length average = 1
Total in-flight flits = 29 (29 measured)
latency change    = 0.464514
throughput change = 0.0945626
Class 0:
Packet latency average = 33.4419
	minimum = 7
	maximum = 326
Network latency average = 29.9664
	minimum = 7
	maximum = 262
Slowest packet = 5656
Flit latency average = 30.8385
	minimum = 7
	maximum = 262
Slowest flit = 5677
Fragmentation average = 0
	minimum = 0
	maximum = 0
Injected packet rate average = 0.0498125
	minimum = 0.039 (at node 5)
	maximum = 0.059 (at node 2)
Accepted packet rate average = 0.0499375
	minimum = 0.039 (at node 5)
	maximum = 0.057 (at node 2)
Injected flit rate average = 0.0498125
	minimum = 0.039 (at node 5)
	maximum = 0.059 (at node 2)
Accepted flit rate average= 0.0499375
	minimum = 0.039 (at node 5)
	maximum = 0.057 (at node 2)
Injected packet length average = 1
Accepted packet length average = 1
Total in-flight flits = 23 (23 measured)
latency change    = 0.0873683
throughput change = 0.0588235
Class 0:
Packet latency average = 35.9131
	minimum = 7
	maximum = 373
Network latency average = 29.6457
	minimum = 7
	maximum = 262
Slowest packet = 5656
Flit latency average = 30.2174
	minimum = 7
	maximum = 262
Slowest flit = 5677
Fragmentation average = 0
	minimum = 0
	maximum = 0
Injected packet rate average = 0.051375
	minimum = 0.0453333 (at node 10)
	maximum = 0.0573333 (at node 2)
Accepted packet rate average = 0.051375
	minimum = 0.0453333 (at node 10)
	maximum = 0.0573333 (at node 8)
Injected flit rate average = 0.051375
	minimum = 0.0453333 (at node 10)
	maximum = 0.0573333 (at node 2)
Accepted flit rate average= 0.051375
	minimum = 0.0453333 (at node 10)
	maximum = 0.0573333 (at node 8)
Injected packet length average = 1
Accepted packet length average = 1
Total in-flight flits = 24 (24 measured)
latency change    = 0.0688111
throughput change = 0.0279805
Class 0:
Packet latency average = 35.045
	minimum = 7
	maximum = 373
Network latency average = 30.2101
	minimum = 7
	maximum = 262
Slowest packet = 5656
Flit latency average = 30.6292
	minimum = 7
	maximum = 262
Slowest flit = 5677
Fragmentation average = 0
	minimum = 0
	maximum = 0
Injected packet rate average = 0.0514688
	minimum = 0.048 (at node 3)
	maximum = 0.0585 (at node 7)
Accepted packet rate average = 0.0515
	minimum = 0.048 (at node 10)
	maximum = 0.0575 (at node 2)
Injected flit rate average = 0.0514688
	minimum = 0.048 (at node 3)
	maximum = 0.0585 (at node 7)
Accepted flit rate average= 0.0515
	minimum = 0.048 (at node 10)
	maximum = 0.0575 (at node 2)
Injected packet length average = 1
Accepted packet length average = 1
Total in-flight flits = 23 (23 measured)
latency change    = 0.0247711
throughput change = 0.00242718
Class 0:
Packet latency average = 33.9626
	minimum = 7
	maximum = 373
Network latency average = 30.0145
	minimum = 7
	maximum = 262
Slowest packet = 5656
Flit latency average = 30.3575
	minimum = 7
	maximum = 262
Slowest flit = 5677
Fragmentation average = 0
	minimum = 0
	maximum = 0
Injected packet rate average = 0.05055
	minimum = 0.0448 (at node 6)
	maximum = 0.0552 (at node 7)
Accepted packet rate average = 0.0507
	minimum = 0.0444 (at node 9)
	maximum = 0.0556 (at node 2)
Injected flit rate average = 0.05055
	minimum = 0.0448 (at node 6)
	maximum = 0.0552 (at node 7)
Accepted flit rate average= 0.0507
	minimum = 0.0444 (at node 9)
	maximum = 0.0556 (at node 2)
Injected packet length average = 1
Accepted packet length average = 1
Total in-flight flits = 18 (18 measured)
latency change    = 0.031871
throughput change = 0.0157791
Class 0:
Packet latency average = 32.598
	minimum = 7
	maximum = 373
Network latency average = 29.2225
	minimum = 7
	maximum = 262
Slowest packet = 5656
Flit latency average = 29.5209
	minimum = 7
	maximum = 262
Slowest flit = 5677
Fragmentation average = 0
	minimum = 0
	maximum = 0
Injected packet rate average = 0.0499792
	minimum = 0.0443333 (at node 6)
	maximum = 0.0563333 (at node 7)
Accepted packet rate average = 0.0499583
	minimum = 0.044 (at node 9)
	maximum = 0.0556667 (at node 13)
Injected flit rate average = 0.0499792
	minimum = 0.0443333 (at node 6)
	maximum = 0.0563333 (at node 7)
Accepted flit rate average= 0.0499583
	minimum = 0.044 (at node 9)
	maximum = 0.0556667 (at node 13)
Injected packet length average = 1
Accepted packet length average = 1
Total in-flight flits = 26 (26 measured)
latency change    = 0.0418608
throughput change = 0.0148457
Draining all recorded packets ...
Draining remaining packets ...
Time taken is 4818 cycles
Class 0:
Packet latency average = 23.7656
	minimum = 7
	maximum = 115
Network latency average = 23.7135
	minimum = 7
	maximum = 115
Slowest packet = 8356
Flit latency average = 23.7135
	minimum = 7
	maximum = 115
Slowest flit = 8356
Fragmentation average = 0
	minimum = 0
	maximum = 0
Injected packet rate average = 0.050625
	minimum = 0.034 (at node 14)
	maximum = 0.066 (at node 7)
Accepted packet rate average = 0.048
	minimum = 0.032 (at node 11)
	maximum = 0.066 (at node 14)
Injected flit rate average = 0.050625
	minimum = 0.034 (at node 14)
	maximum = 0.066 (at node 7)
Accepted flit rate average= 0.048
	minimum = 0.032 (at node 11)
	maximum = 0.066 (at node 14)
Injected packet length average = 1
Accepted packet length average = 1
Total in-flight flits = 21 (0 measured)
latency change    = 1
throughput change = 1
Class 0:
Packet latency average = 24.3656
	minimum = 7
	maximum = 115
Network latency average = 24.2003
	minimum = 7
	maximum = 115
Slowest packet = 8356
Flit latency average = 24.2003
	minimum = 7
	maximum = 115
Slowest flit = 8356
Fragmentation average = 0
	minimum = 0
	maximum = 0
Injected packet rate average = 0.0505
	minimum = 0.043 (at node 14)
	maximum = 0.059 (at node 0)
Accepted packet rate average = 0.048375
	minimum = 0.038 (at node 11)
	maximum = 0.059 (at node 0)
Injected flit rate average = 0.0505
	minimum = 0.043 (at node 14)
	maximum = 0.059 (at node 0)
Accepted flit rate average= 0.048375
	minimum = 0.038 (at node 11)
	maximum = 0.059 (at node 0)
Injected packet length average = 1
Accepted packet length average = 1
Total in-flight flits = 36 (0 measured)
latency change    = 0.0246252
throughput change = 0.00775194
Class 0:
Packet latency average = 36.539
	minimum = 7
	maximum = 390
Network latency average = 30.9975
	minimum = 7
	maximum = 241
Slowest packet = 8959
Flit latency average = 30.9975
	minimum = 7
	maximum = 241
Slowest flit = 8959
Fragmentation average = 0
	minimum = 0
	maximum = 0
Injected packet rate average = 0.048875
	minimum = 0.024 (at node 2)
	maximum = 0.066 (at node 15)
Accepted packet rate average = 0.049625
	minimum = 0.024 (at node 8)
	maximum = 0.07 (at node 12)
Injected flit rate average = 0.048875
	minimum = 0.024 (at node 2)
	maximum = 0.066 (at node 15)
Accepted flit rate average= 0.049625
	minimum = 0.024 (at node 8)
	maximum = 0.07 (at node 12)
Injected packet length average = 1
Accepted packet length average = 1
Total in-flight flits = 29 (0 measured)
latency change    = 0.333162
throughput change = 0.0251889
Warmed up ...Time used is 1500 cycles
Class 0:
Packet latency average = 35.7467
	minimum = 7
	maximum = 345
Network latency average = 28.0818
	minimum = 7
	maximum = 181
Slowest packet = 9403
Flit latency average = 31.777
	minimum = 7
	maximum = 244
Slowest flit = 9246
Fragmentation average = 0
	minimum = 0
	maximum = 0
Injected packet rate average = 0.0515
	minimum = 0.034 (at node 15)
	maximum = 0.078 (at node 7)
Accepted packet rate average = 0.051
	minimum = 0.032 (at node 15)
	maximum = 0.084 (at node 13)
Injected flit rate average = 0.0515
	minimum = 0.034 (at node 15)
	maximum = 0.078 (at node 7)
Accepted flit rate average= 0.051
	minimum = 0.032 (at node 15)
	maximum = 0.084 (at node 13)
Injected packet length average = 1
Accepted packet length average = 1
Total in-flight flits = 33 (33 measured)
latency change    = 0.0221654
throughput change = 0.0269608
Class 0:
Packet latency average = 37.6921
	minimum = 7
	maximum = 477
Network latency average = 30.2291
	minimum = 7
	maximum = 241
Slowest packet = 9403
Flit latency average = 31.9477
	minimum = 7
	maximum = 244
Slowest flit = 9246
Fragmentation average = 0
	minimum = 0
	maximum = 0
Injected packet rate average = 0.0520625
	minimum = 0.041 (at node 13)
	maximum = 0.067 (at node 7)
Accepted packet rate average = 0.0525625
	minimum = 0.041 (at node 15)
	maximum = 0.07 (at node 13)
Injected flit rate average = 0.0520625
	minimum = 0.041 (at node 13)
	maximum = 0.067 (at node 7)
Accepted flit rate average= 0.0525625
	minimum = 0.041 (at node 15)
	maximum = 0.07 (at node 13)
Injected packet length average = 1
Accepted packet length average = 1
Total in-flight flits = 21 (21 measured)
latency change    = 0.0516133
throughput change = 0.0297265
Class 0:
Packet latency average = 38.2157
	minimum = 7
	maximum = 479
Network latency average = 29.9379
	minimum = 7
	maximum = 253
Slowest packet = 9403
Flit latency average = 31.0982
	minimum = 7
	maximum = 253
Slowest flit = 10099
Fragmentation average = 0
	minimum = 0
	maximum = 0
Injected packet rate average = 0.05225
	minimum = 0.04 (at node 15)
	maximum = 0.0613333 (at node 3)
Accepted packet rate average = 0.0522083
	minimum = 0.0393333 (at node 15)
	maximum = 0.0613333 (at node 12)
Injected flit rate average = 0.05225
	minimum = 0.04 (at node 15)
	maximum = 0.0613333 (at node 3)
Accepted flit rate average= 0.0522083
	minimum = 0.0393333 (at node 15)
	maximum = 0.0613333 (at node 12)
Injected packet length average = 1
Accepted packet length average = 1
Total in-flight flits = 30 (30 measured)
latency change    = 0.0137003
throughput change = 0.00678372
Class 0:
Packet latency average = 41.2193
	minimum = 7
	maximum = 591
Network latency average = 30.1538
	minimum = 7
	maximum = 253
Slowest packet = 9403
Flit latency average = 31.0155
	minimum = 7
	maximum = 253
Slowest flit = 10099
Fragmentation average = 0
	minimum = 0
	maximum = 0
Injected packet rate average = 0.0524375
	minimum = 0.0415 (at node 13)
	maximum = 0.0595 (at node 3)
Accepted packet rate average = 0.0525
	minimum = 0.0415 (at node 7)
	maximum = 0.06 (at node 12)
Injected flit rate average = 0.0524375
	minimum = 0.0415 (at node 13)
	maximum = 0.0595 (at node 3)
Accepted flit rate average= 0.0525
	minimum = 0.0415 (at node 7)
	maximum = 0.06 (at node 12)
Injected packet length average = 1
Accepted packet length average = 1
Total in-flight flits = 27 (27 measured)
latency change    = 0.0728682
throughput change = 0.00555556
Class 0:
Packet latency average = 42.5178
	minimum = 7
	maximum = 719
Network latency average = 30.0246
	minimum = 7
	maximum = 253
Slowest packet = 9403
Flit latency average = 30.714
	minimum = 7
	maximum = 253
Slowest flit = 10099
Fragmentation average = 0
	minimum = 0
	maximum = 0
Injected packet rate average = 0.052525
	minimum = 0.0404 (at node 13)
	maximum = 0.0604 (at node 0)
Accepted packet rate average = 0.052625
	minimum = 0.0404 (at node 7)
	maximum = 0.06 (at node 0)
Injected flit rate average = 0.052525
	minimum = 0.0404 (at node 13)
	maximum = 0.0604 (at node 0)
Accepted flit rate average= 0.052625
	minimum = 0.0404 (at node 7)
	maximum = 0.06 (at node 0)
Injected packet length average = 1
Accepted packet length average = 1
Total in-flight flits = 25 (25 measured)
latency change    = 0.0305416
throughput change = 0.0023753
Class 0:
Packet latency average = 47.5049
	minimum = 7
	maximum = 763
Network latency average = 30.1086
	minimum = 7
	maximum = 253
Slowest packet = 9403
Flit latency average = 30.6912
	minimum = 7
	maximum = 253
Slowest flit = 10099
Fragmentation average = 0
	minimum = 0
	maximum = 0
Injected packet rate average = 0.0517917
	minimum = 0.0436667 (at node 13)
	maximum = 0.0606667 (at node 0)
Accepted packet rate average = 0.0518125
	minimum = 0.0436667 (at node 7)
	maximum = 0.0606667 (at node 0)
Injected flit rate average = 0.0517917
	minimum = 0.0436667 (at node 13)
	maximum = 0.0606667 (at node 0)
Accepted flit rate average= 0.0518125
	minimum = 0.0436667 (at node 7)
	maximum = 0.0606667 (at node 0)
Injected packet length average = 1
Accepted packet length average = 1
Total in-flight flits = 28 (28 measured)
latency change    = 0.10498
throughput change = 0.0156815
Class 0:
Packet latency average = 51.2018
	minimum = 7
	maximum = 784
Network latency average = 29.8615
	minimum = 7
	maximum = 253
Slowest packet = 9403
Flit latency average = 30.3681
	minimum = 7
	maximum = 253
Slowest flit = 10099
Fragmentation average = 0
	minimum = 0
	maximum = 0
Injected packet rate average = 0.0511607
	minimum = 0.046 (at node 13)
	maximum = 0.0577143 (at node 0)
Accepted packet rate average = 0.0513214
	minimum = 0.0457143 (at node 15)
	maximum = 0.0577143 (at node 0)
Injected flit rate average = 0.0511607
	minimum = 0.046 (at node 13)
	maximum = 0.0577143 (at node 0)
Accepted flit rate average= 0.0513214
	minimum = 0.0457143 (at node 15)
	maximum = 0.0577143 (at node 0)
Injected packet length average = 1
Accepted packet length average = 1
Total in-flight flits = 20 (20 measured)
latency change    = 0.0722021
throughput change = 0.00956855
Draining all recorded packets ...
Draining remaining packets ...
Time taken is 5837 cycles
Class 0:
Packet latency average = 23.5588
	minimum = 7
	maximum = 91
Network latency average = 23.5481
	minimum = 7
	maximum = 91
Slowest packet = 12906
Flit latency average = 23.5481
	minimum = 7
	maximum = 91
Slowest flit = 12906
Fragmentation average = 0
	minimum = 0
	maximum = 0
Injected packet rate average = 0.048375
	minimum = 0.036 (at node 2)
	maximum = 0.066 (at node 0)
Accepted packet rate average = 0.04675
	minimum = 0.036 (at node 2)
	maximum = 0.064 (at node 0)
Injected flit rate average = 0.048375
	minimum = 0.036 (at node 2)
	maximum = 0.066 (at node 0)
Accepted flit rate average= 0.04675
	minimum = 0.036 (at node 2)
	maximum = 0.064 (at node 0)
Injected packet length average = 1
Accepted packet length average = 1
Total in-flight flits = 13 (0 measured)
latency change    = 1
throughput change = 1
Class 0:
Packet latency average = 24.7333
	minimum = 7
	maximum = 136
Network latency average = 24.6562
	minimum = 7
	maximum = 136
Slowest packet = 13432
Flit latency average = 24.6562
	minimum = 7
	maximum = 136
Slowest flit = 13432
Fragmentation average = 0
	minimum = 0
	maximum = 0
Injected packet rate average = 0.049125
	minimum = 0.038 (at node 4)
	maximum = 0.057 (at node 0)
Accepted packet rate average = 0.0478125
	minimum = 0.038 (at node 1)
	maximum = 0.056 (at node 0)
Injected flit rate average = 0.049125
	minimum = 0.038 (at node 4)
	maximum = 0.057 (at node 0)
Accepted flit rate average= 0.0478125
	minimum = 0.038 (at node 1)
	maximum = 0.056 (at node 0)
Injected packet length average = 1
Accepted packet length average = 1
Total in-flight flits = 21 (0 measured)
latency change    = 0.0474869
throughput change = 0.0222222
Class 0:
Packet latency average = 29.5972
	minimum = 7
	maximum = 218
Network latency average = 29.0507
	minimum = 7
	maximum = 204
Slowest packet = 13736
Flit latency average = 29.0507
	minimum = 7
	maximum = 204
Slowest flit = 13736
Fragmentation average = 0
	minimum = 0
	maximum = 0
Injected packet rate average = 0.04425
	minimum = 0.032 (at node 4)
	maximum = 0.062 (at node 7)
Accepted packet rate average = 0.044375
	minimum = 0.03 (at node 1)
	maximum = 0.066 (at node 13)
Injected flit rate average = 0.04425
	minimum = 0.032 (at node 4)
	maximum = 0.062 (at node 7)
Accepted flit rate average= 0.044375
	minimum = 0.03 (at node 1)
	maximum = 0.066 (at node 13)
Injected packet length average = 1
Accepted packet length average = 1
Total in-flight flits = 20 (0 measured)
latency change    = 0.164335
throughput change = 0.0774648
Warmed up ...Time used is 1500 cycles
Class 0:
Packet latency average = 25.7754
	minimum = 7
	maximum = 105
Network latency average = 25.7754
	minimum = 7
	maximum = 105
Slowest packet = 14276
Flit latency average = 26.1954
	minimum = 7
	maximum = 113
Slowest flit = 13917
Fragmentation average = 0
	minimum = 0
	maximum = 0
Injected packet rate average = 0.05075
	minimum = 0.032 (at node 0)
	maximum = 0.072 (at node 9)
Accepted packet rate average = 0.04925
	minimum = 0.034 (at node 0)
	maximum = 0.07 (at node 6)
Injected flit rate average = 0.05075
	minimum = 0.032 (at node 0)
	maximum = 0.072 (at node 9)
Accepted flit rate average= 0.04925
	minimum = 0.034 (at node 0)
	maximum = 0.07 (at node 6)
Injected packet length average = 1
Accepted packet length average = 1
Total in-flight flits = 33 (33 measured)
latency change    = 0.148272
throughput change = 0.0989848
Class 0:
Packet latency average = 32.4252
	minimum = 7
	maximum = 300
Network latency average = 29.7738
	minimum = 7
	maximum = 298
Slowest packet = 14517
Flit latency average = 29.877
	minimum = 7
	maximum = 298
Slowest flit = 14517
Fragmentation average = 0
	minimum = 0
	maximum = 0
Injected packet rate average = 0.052
	minimum = 0.043 (at node 5)
	maximum = 0.06 (at node 9)
Accepted packet rate average = 0.0518125
	minimum = 0.041 (at node 7)
	maximum = 0.059 (at node 6)
Injected flit rate average = 0.052
	minimum = 0.043 (at node 5)
	maximum = 0.06 (at node 9)
Accepted flit rate average= 0.0518125
	minimum = 0.041 (at node 7)
	maximum = 0.059 (at node 6)
Injected packet length average = 1
Accepted packet length average = 1
Total in-flight flits = 24 (24 measured)
latency change    = 0.205082
throughput change = 0.0494572
Class 0:
Packet latency average = 33.4752
	minimum = 7
	maximum = 458
Network latency average = 29.8342
	minimum = 7
	maximum = 301
Slowest packet = 14517
Flit latency average = 29.9026
	minimum = 7
	maximum = 301
Slowest flit = 14905
Fragmentation average = 0
	minimum = 0
	maximum = 0
Injected packet rate average = 0.0515
	minimum = 0.0413333 (at node 13)
	maximum = 0.0606667 (at node 6)
Accepted packet rate average = 0.0513333
	minimum = 0.0393333 (at node 7)
	maximum = 0.0593333 (at node 9)
Injected flit rate average = 0.0515
	minimum = 0.0413333 (at node 13)
	maximum = 0.0606667 (at node 6)
Accepted flit rate average= 0.0513333
	minimum = 0.0393333 (at node 7)
	maximum = 0.0593333 (at node 9)
Injected packet length average = 1
Accepted packet length average = 1
Total in-flight flits = 25 (25 measured)
latency change    = 0.0313674
throughput change = 0.00933442
Class 0:
Packet latency average = 36.0185
	minimum = 7
	maximum = 458
Network latency average = 30.1165
	minimum = 7
	maximum = 301
Slowest packet = 14517
Flit latency average = 30.1644
	minimum = 7
	maximum = 301
Slowest flit = 14905
Fragmentation average = 0
	minimum = 0
	maximum = 0
Injected packet rate average = 0.0515625
	minimum = 0.044 (at node 11)
	maximum = 0.0595 (at node 6)
Accepted packet rate average = 0.0513125
	minimum = 0.0445 (at node 7)
	maximum = 0.058 (at node 12)
Injected flit rate average = 0.0515625
	minimum = 0.044 (at node 11)
	maximum = 0.0595 (at node 6)
Accepted flit rate average= 0.0513125
	minimum = 0.0445 (at node 7)
	maximum = 0.058 (at node 12)
Injected packet length average = 1
Accepted packet length average = 1
Total in-flight flits = 29 (29 measured)
latency change    = 0.0706095
throughput change = 0.000406009
Class 0:
Packet latency average = 35.3768
	minimum = 7
	maximum = 458
Network latency average = 30.1136
	minimum = 7
	maximum = 301
Slowest packet = 14517
Flit latency average = 30.1521
	minimum = 7
	maximum = 301
Slowest flit = 14905
Fragmentation average = 0
	minimum = 0
	maximum = 0
Injected packet rate average = 0.0513
	minimum = 0.0436 (at node 11)
	maximum = 0.0564 (at node 6)
Accepted packet rate average = 0.051125
	minimum = 0.0448 (at node 14)
	maximum = 0.0564 (at node 9)
Injected flit rate average = 0.0513
	minimum = 0.0436 (at node 11)
	maximum = 0.0564 (at node 6)
Accepted flit rate average= 0.051125
	minimum = 0.0448 (at node 14)
	maximum = 0.0564 (at node 9)
Injected packet length average = 1
Accepted packet length average = 1
Total in-flight flits = 28 (28 measured)
latency change    = 0.0181392
throughput change = 0.00366748
Class 0:
Packet latency average = 34.7756
	minimum = 7
	maximum = 458
Network latency average = 29.9787
	minimum = 7
	maximum = 301
Slowest packet = 14517
Flit latency average = 30.0118
	minimum = 7
	maximum = 301
Slowest flit = 14905
Fragmentation average = 0
	minimum = 0
	maximum = 0
Injected packet rate average = 0.0515417
	minimum = 0.043 (at node 11)
	maximum = 0.0566667 (at node 6)
Accepted packet rate average = 0.0513958
	minimum = 0.044 (at node 14)
	maximum = 0.056 (at node 0)
Injected flit rate average = 0.0515417
	minimum = 0.043 (at node 11)
	maximum = 0.0566667 (at node 6)
Accepted flit rate average= 0.0513958
	minimum = 0.044 (at node 14)
	maximum = 0.056 (at node 0)
Injected packet length average = 1
Accepted packet length average = 1
Total in-flight flits = 29 (29 measured)
latency change    = 0.0172864
throughput change = 0.00526956
Class 0:
Packet latency average = 36.7527
	minimum = 7
	maximum = 505
Network latency average = 30.0395
	minimum = 7
	maximum = 301
Slowest packet = 14517
Flit latency average = 30.0673
	minimum = 7
	maximum = 301
Slowest flit = 14905
Fragmentation average = 0
	minimum = 0
	maximum = 0
Injected packet rate average = 0.0514643
	minimum = 0.044 (at node 11)
	maximum = 0.0571429 (at node 6)
Accepted packet rate average = 0.0514821
	minimum = 0.0448571 (at node 14)
	maximum = 0.0571429 (at node 9)
Injected flit rate average = 0.0514643
	minimum = 0.044 (at node 11)
	maximum = 0.0571429 (at node 6)
Accepted flit rate average= 0.0514821
	minimum = 0.0448571 (at node 14)
	maximum = 0.0571429 (at node 9)
Injected packet length average = 1
Accepted packet length average = 1
Total in-flight flits = 20 (20 measured)
latency change    = 0.0537937
throughput change = 0.00167649
Draining all recorded packets ...
Draining remaining packets ...
Time taken is 5424 cycles
Class 0:
Packet latency average = 25.0099
	minimum = 7
	maximum = 161
Network latency average = 24.9951
	minimum = 7
	maximum = 161
Slowest packet = 17249
Flit latency average = 24.9951
	minimum = 7
	maximum = 161
Slowest flit = 17249
Fragmentation average = 0
	minimum = 0
	maximum = 0
Injected packet rate average = 0.054125
	minimum = 0.032 (at node 6)
	maximum = 0.076 (at node 8)
Accepted packet rate average = 0.05075
	minimum = 0.03 (at node 9)
	maximum = 0.066 (at node 2)
Injected flit rate average = 0.054125
	minimum = 0.032 (at node 6)
	maximum = 0.076 (at node 8)
Accepted flit rate average= 0.05075
	minimum = 0.03 (at node 9)
	maximum = 0.066 (at node 2)
Injected packet length average = 1
Accepted packet length average = 1
Total in-flight flits = 27 (0 measured)
latency change    = 1
throughput change = 1
Class 0:
Packet latency average = 26.0353
	minimum = 7
	maximum = 176
Network latency average = 26.0139
	minimum = 7
	maximum = 176
Slowest packet = 17589
Flit latency average = 26.0139
	minimum = 7
	maximum = 176
Slowest flit = 17589
Fragmentation average = 0
	minimum = 0
	maximum = 0
Injected packet rate average = 0.050875
	minimum = 0.041 (at node 6)
	maximum = 0.065 (at node 8)
Accepted packet rate average = 0.0495625
	minimum = 0.04 (at node 9)
	maximum = 0.063 (at node 2)
Injected flit rate average = 0.050875
	minimum = 0.041 (at node 6)
	maximum = 0.065 (at node 8)
Accepted flit rate average= 0.0495625
	minimum = 0.04 (at node 9)
	maximum = 0.063 (at node 2)
Injected packet length average = 1
Accepted packet length average = 1
Total in-flight flits = 21 (0 measured)
latency change    = 0.0393872
throughput change = 0.0239596
Class 0:
Packet latency average = 28.1833
	minimum = 7
	maximum = 250
Network latency average = 26.9595
	minimum = 7
	maximum = 181
Slowest packet = 17958
Flit latency average = 26.9595
	minimum = 7
	maximum = 181
Slowest flit = 17958
Fragmentation average = 0
	minimum = 0
	maximum = 0
Injected packet rate average = 0.052375
	minimum = 0.032 (at node 1)
	maximum = 0.066 (at node 6)
Accepted packet rate average = 0.0525
	minimum = 0.034 (at node 4)
	maximum = 0.068 (at node 9)
Injected flit rate average = 0.052375
	minimum = 0.032 (at node 1)
	maximum = 0.066 (at node 6)
Accepted flit rate average= 0.0525
	minimum = 0.034 (at node 4)
	maximum = 0.068 (at node 9)
Injected packet length average = 1
Accepted packet length average = 1
Total in-flight flits = 20 (0 measured)
latency change    = 0.0762161
throughput change = 0.0559524
Warmed up ...Time used is 1500 cycles
Class 0:
Packet latency average = 25.8522
	minimum = 7
	maximum = 118
Network latency average = 25.7231
	minimum = 7
	maximum = 118
Slowest packet = 18651
Flit latency average = 26.9413
	minimum = 7
	maximum = 182
Slowest flit = 18235
Fragmentation average = 0
	minimum = 0
	maximum = 0
Injected packet rate average = 0.048125
	minimum = 0.04 (at node 4)
	maximum = 0.062 (at node 1)
Accepted packet rate average = 0.049
	minimum = 0.04 (at node 1)
	maximum = 0.062 (at node 4)
Injected flit rate average = 0.048125
	minimum = 0.04 (at node 4)
	maximum = 0.062 (at node 1)
Accepted flit rate average= 0.049
	minimum = 0.04 (at node 1)
	maximum = 0.062 (at node 4)
Injected packet length average = 1
Accepted packet length average = 1
Total in-flight flits = 13 (13 measured)
latency change    = 0.0901737
throughput change = 0.0714286
Class 0:
Packet latency average = 25.9586
	minimum = 7
	maximum = 214
Network latency average = 25.8924
	minimum = 7
	maximum = 214
Slowest packet = 18952
Flit latency average = 26.5289
	minimum = 7
	maximum = 214
Slowest flit = 18952
Fragmentation average = 0
	minimum = 0
	maximum = 0
Injected packet rate average = 0.0466875
	minimum = 0.034 (at node 4)
	maximum = 0.06 (at node 5)
Accepted packet rate average = 0.0465625
	minimum = 0.034 (at node 1)
	maximum = 0.06 (at node 5)
Injected flit rate average = 0.0466875
	minimum = 0.034 (at node 4)
	maximum = 0.06 (at node 5)
Accepted flit rate average= 0.0465625
	minimum = 0.034 (at node 1)
	maximum = 0.06 (at node 5)
Injected packet length average = 1
Accepted packet length average = 1
Total in-flight flits = 23 (23 measured)
latency change    = 0.00410153
throughput change = 0.052349
Class 0:
Packet latency average = 29.504
	minimum = 7
	maximum = 329
Network latency average = 27.9463
	minimum = 7
	maximum = 219
Slowest packet = 18988
Flit latency average = 28.3212
	minimum = 7
	maximum = 219
Slowest flit = 18988
Fragmentation average = 0
	minimum = 0
	maximum = 0
Injected packet rate average = 0.0481667
	minimum = 0.0413333 (at node 4)
	maximum = 0.056 (at node 1)
Accepted packet rate average = 0.048125
	minimum = 0.042 (at node 1)
	maximum = 0.056 (at node 4)
Injected flit rate average = 0.0481667
	minimum = 0.0413333 (at node 4)
	maximum = 0.056 (at node 1)
Accepted flit rate average= 0.048125
	minimum = 0.042 (at node 1)
	maximum = 0.056 (at node 4)
Injected packet length average = 1
Accepted packet length average = 1
Total in-flight flits = 22 (22 measured)
latency change    = 0.120165
throughput change = 0.0324675
Class 0:
Packet latency average = 32.955
	minimum = 7
	maximum = 415
Network latency average = 28.7386
	minimum = 7
	maximum = 233
Slowest packet = 18988
Flit latency average = 29.0071
	minimum = 7
	maximum = 233
Slowest flit = 19728
Fragmentation average = 0
	minimum = 0
	maximum = 0
Injected packet rate average = 0.0486562
	minimum = 0.043 (at node 9)
	maximum = 0.059 (at node 1)
Accepted packet rate average = 0.0485625
	minimum = 0.0435 (at node 6)
	maximum = 0.059 (at node 4)
Injected flit rate average = 0.0486562
	minimum = 0.043 (at node 9)
	maximum = 0.059 (at node 1)
Accepted flit rate average= 0.0485625
	minimum = 0.0435 (at node 6)
	maximum = 0.059 (at node 4)
Injected packet length average = 1
Accepted packet length average = 1
Total in-flight flits = 24 (24 measured)
latency change    = 0.10472
throughput change = 0.00900901
Class 0:
Packet latency average = 35.8262
	minimum = 7
	maximum = 499
Network latency average = 28.8817
	minimum = 7
	maximum = 233
Slowest packet = 18988
Flit latency average = 29.0926
	minimum = 7
	maximum = 233
Slowest flit = 19728
Fragmentation average = 0
	minimum = 0
	maximum = 0
Injected packet rate average = 0.0492
	minimum = 0.0412 (at node 9)
	maximum = 0.0588 (at node 1)
Accepted packet rate average = 0.049125
	minimum = 0.0416 (at node 6)
	maximum = 0.0584 (at node 4)
Injected flit rate average = 0.0492
	minimum = 0.0412 (at node 9)
	maximum = 0.0588 (at node 1)
Accepted flit rate average= 0.049125
	minimum = 0.0416 (at node 6)
	maximum = 0.0584 (at node 4)
Injected packet length average = 1
Accepted packet length average = 1
Total in-flight flits = 24 (24 measured)
latency change    = 0.0801425
throughput change = 0.0114504
Class 0:
Packet latency average = 37.8526
	minimum = 7
	maximum = 545
Network latency average = 29.1465
	minimum = 7
	maximum = 262
Slowest packet = 18988
Flit latency average = 29.3218
	minimum = 7
	maximum = 262
Slowest flit = 20193
Fragmentation average = 0
	minimum = 0
	maximum = 0
Injected packet rate average = 0.0487083
	minimum = 0.0406667 (at node 9)
	maximum = 0.0583333 (at node 1)
Accepted packet rate average = 0.048625
	minimum = 0.041 (at node 6)
	maximum = 0.058 (at node 4)
Injected flit rate average = 0.0487083
	minimum = 0.0406667 (at node 9)
	maximum = 0.0583333 (at node 1)
Accepted flit rate average= 0.048625
	minimum = 0.041 (at node 6)
	maximum = 0.058 (at node 4)
Injected packet length average = 1
Accepted packet length average = 1
Total in-flight flits = 24 (24 measured)
latency change    = 0.0535343
throughput change = 0.0102828
Class 0:
Packet latency average = 35.8994
	minimum = 7
	maximum = 545
Network latency average = 28.4462
	minimum = 7
	maximum = 262
Slowest packet = 18988
Flit latency average = 28.6015
	minimum = 7
	maximum = 262
Slowest flit = 20193
Fragmentation average = 0
	minimum = 0
	maximum = 0
Injected packet rate average = 0.0488036
	minimum = 0.0417143 (at node 9)
	maximum = 0.0545714 (at node 1)
Accepted packet rate average = 0.048625
	minimum = 0.0417143 (at node 6)
	maximum = 0.0545714 (at node 4)
Injected flit rate average = 0.0488036
	minimum = 0.0417143 (at node 9)
	maximum = 0.0545714 (at node 1)
Accepted flit rate average= 0.048625
	minimum = 0.0417143 (at node 6)
	maximum = 0.0545714 (at node 4)
Injected packet length average = 1
Accepted packet length average = 1
Total in-flight flits = 30 (30 measured)
latency change    = 0.0544095
throughput change = 0
Draining all recorded packets ...
Draining remaining packets ...
Time taken is 5284 cycles
Class 0:
Packet latency average = 23.2169
	minimum = 7
	maximum = 137
Network latency average = 23.2028
	minimum = 7
	maximum = 137
Slowest packet = 21452
Flit latency average = 23.2028
	minimum = 7
	maximum = 137
Slowest flit = 21452
Fragmentation average = 0
	minimum = 0
	maximum = 0
Injected packet rate average = 0.048
	minimum = 0.038 (at node 5)
	maximum = 0.062 (at node 6)
Accepted packet rate average = 0.044375
	minimum = 0.028 (at node 7)
	maximum = 0.06 (at node 9)
Injected flit rate average = 0.048
	minimum = 0.038 (at node 5)
	maximum = 0.062 (at node 6)
Accepted flit rate average= 0.044375
	minimum = 0.028 (at node 7)
	maximum = 0.06 (at node 9)
Injected packet length average = 1
Accepted packet length average = 1
Total in-flight flits = 30 (0 measured)
latency change    = 1
throughput change = 1
Class 0:
Packet latency average = 29.6503
	minimum = 7
	maximum = 307
Network latency average = 27.0027
	minimum = 7
	maximum = 258
Slowest packet = 21507
Flit latency average = 27.0027
	minimum = 7
	maximum = 258
Slowest flit = 21507
Fragmentation average = 0
	minimum = 0
	maximum = 0
Injected packet rate average = 0.048125
	minimum = 0.038 (at node 5)
	maximum = 0.059 (at node 3)
Accepted packet rate average = 0.0459375
	minimum = 0.036 (at node 2)
	maximum = 0.057 (at node 9)
Injected flit rate average = 0.048125
	minimum = 0.038 (at node 5)
	maximum = 0.059 (at node 3)
Accepted flit rate average= 0.0459375
	minimum = 0.036 (at node 2)
	maximum = 0.057 (at node 9)
Injected packet length average = 1
Accepted packet length average = 1
Total in-flight flits = 36 (0 measured)
latency change    = 0.216977
throughput change = 0.0340136
Class 0:
Packet latency average = 37.3934
	minimum = 7
	maximum = 457
Network latency average = 31.2868
	minimum = 7
	maximum = 242
Slowest packet = 21848
Flit latency average = 31.2868
	minimum = 7
	maximum = 242
Slowest flit = 21976
Fragmentation average = 0
	minimum = 0
	maximum = 0
Injected packet rate average = 0.048
	minimum = 0.032 (at node 9)
	maximum = 0.072 (at node 4)
Accepted packet rate average = 0.04925
	minimum = 0.032 (at node 6)
	maximum = 0.072 (at node 1)
Injected flit rate average = 0.048
	minimum = 0.032 (at node 9)
	maximum = 0.072 (at node 4)
Accepted flit rate average= 0.04925
	minimum = 0.032 (at node 6)
	maximum = 0.072 (at node 1)
Injected packet length average = 1
Accepted packet length average = 1
Total in-flight flits = 27 (0 measured)
latency change    = 0.20707
throughput change = 0.0672589
Warmed up ...Time used is 1500 cycles
Class 0:
Packet latency average = 40.2094
	minimum = 7
	maximum = 587
Network latency average = 27.7356
	minimum = 7
	maximum = 231
Slowest packet = 22399
Flit latency average = 31.8582
	minimum = 7
	maximum = 264
Slowest flit = 22216
Fragmentation average = 0
	minimum = 0
	maximum = 0
Injected packet rate average = 0.05125
	minimum = 0.034 (at node 6)
	maximum = 0.074 (at node 7)
Accepted packet rate average = 0.051125
	minimum = 0.036 (at node 12)
	maximum = 0.07 (at node 13)
Injected flit rate average = 0.05125
	minimum = 0.034 (at node 6)
	maximum = 0.074 (at node 7)
Accepted flit rate average= 0.051125
	minimum = 0.036 (at node 12)
	maximum = 0.07 (at node 13)
Injected packet length average = 1
Accepted packet length average = 1
Total in-flight flits = 27 (27 measured)
latency change    = 0.0700339
throughput change = 0.0366748
Class 0:
Packet latency average = 42.8854
	minimum = 7
	maximum = 667
Network latency average = 29.1068
	minimum = 7
	maximum = 261
Slowest packet = 22399
Flit latency average = 31.1811
	minimum = 7
	maximum = 264
Slowest flit = 22216
Fragmentation average = 0
	minimum = 0
	maximum = 0
Injected packet rate average = 0.049625
	minimum = 0.039 (at node 6)
	maximum = 0.057 (at node 14)
Accepted packet rate average = 0.0496875
	minimum = 0.04 (at node 7)
	maximum = 0.058 (at node 11)
Injected flit rate average = 0.049625
	minimum = 0.039 (at node 6)
	maximum = 0.057 (at node 14)
Accepted flit rate average= 0.0496875
	minimum = 0.04 (at node 7)
	maximum = 0.058 (at node 11)
Injected packet length average = 1
Accepted packet length average = 1
Total in-flight flits = 25 (25 measured)
latency change    = 0.0623987
throughput change = 0.0289308
Class 0:
Packet latency average = 47.387
	minimum = 7
	maximum = 717
Network latency average = 29.5195
	minimum = 7
	maximum = 261
Slowest packet = 22399
Flit latency average = 30.9052
	minimum = 7
	maximum = 264
Slowest flit = 22216
Fragmentation average = 0
	minimum = 0
	maximum = 0
Injected packet rate average = 0.0495
	minimum = 0.042 (at node 2)
	maximum = 0.0546667 (at node 9)
Accepted packet rate average = 0.04925
	minimum = 0.042 (at node 8)
	maximum = 0.0546667 (at node 6)
Injected flit rate average = 0.0495
	minimum = 0.042 (at node 2)
	maximum = 0.0546667 (at node 9)
Accepted flit rate average= 0.04925
	minimum = 0.042 (at node 8)
	maximum = 0.0546667 (at node 6)
Injected packet length average = 1
Accepted packet length average = 1
Total in-flight flits = 32 (32 measured)
latency change    = 0.0949964
throughput change = 0.00888325
Class 0:
Packet latency average = 46.0304
	minimum = 7
	maximum = 717
Network latency average = 29.2753
	minimum = 7
	maximum = 262
Slowest packet = 22399
Flit latency average = 30.3221
	minimum = 7
	maximum = 264
Slowest flit = 22216
Fragmentation average = 0
	minimum = 0
	maximum = 0
Injected packet rate average = 0.048875
	minimum = 0.042 (at node 2)
	maximum = 0.056 (at node 15)
Accepted packet rate average = 0.0490937
	minimum = 0.0425 (at node 8)
	maximum = 0.0555 (at node 15)
Injected flit rate average = 0.048875
	minimum = 0.042 (at node 2)
	maximum = 0.056 (at node 15)
Accepted flit rate average= 0.0490937
	minimum = 0.0425 (at node 8)
	maximum = 0.0555 (at node 15)
Injected packet length average = 1
Accepted packet length average = 1
Total in-flight flits = 19 (19 measured)
latency change    = 0.0294712
throughput change = 0.00318269
Class 0:
Packet latency average = 46.6
	minimum = 7
	maximum = 717
Network latency average = 29.0987
	minimum = 7
	maximum = 262
Slowest packet = 22399
Flit latency average = 29.9351
	minimum = 7
	maximum = 264
Slowest flit = 22216
Fragmentation average = 0
	minimum = 0
	maximum = 0
Injected packet rate average = 0.049125
	minimum = 0.042 (at node 2)
	maximum = 0.0596 (at node 15)
Accepted packet rate average = 0.0493
	minimum = 0.042 (at node 8)
	maximum = 0.0596 (at node 15)
Injected flit rate average = 0.049125
	minimum = 0.042 (at node 2)
	maximum = 0.0596 (at node 15)
Accepted flit rate average= 0.0493
	minimum = 0.042 (at node 8)
	maximum = 0.0596 (at node 15)
Injected packet length average = 1
Accepted packet length average = 1
Total in-flight flits = 19 (19 measured)
latency change    = 0.0122223
throughput change = 0.00418357
Class 0:
Packet latency average = 46.7266
	minimum = 7
	maximum = 717
Network latency average = 29.6328
	minimum = 7
	maximum = 262
Slowest packet = 22399
Flit latency average = 30.3253
	minimum = 7
	maximum = 264
Slowest flit = 22216
Fragmentation average = 0
	minimum = 0
	maximum = 0
Injected packet rate average = 0.0491875
	minimum = 0.0433333 (at node 11)
	maximum = 0.0583333 (at node 15)
Accepted packet rate average = 0.0491875
	minimum = 0.0436667 (at node 14)
	maximum = 0.058 (at node 15)
Injected flit rate average = 0.0491875
	minimum = 0.0433333 (at node 11)
	maximum = 0.0583333 (at node 15)
Accepted flit rate average= 0.0491875
	minimum = 0.0436667 (at node 14)
	maximum = 0.058 (at node 15)
Injected packet length average = 1
Accepted packet length average = 1
Total in-flight flits = 27 (27 measured)
latency change    = 0.00271043
throughput change = 0.00228717
Draining all recorded packets ...
Draining remaining packets ...
Time taken is 5205 cycles
Class 0:
Packet latency average = 23.5468
	minimum = 7
	maximum = 77
Network latency average = 23.5271
	minimum = 7
	maximum = 72
Slowest packet = 25505
Flit latency average = 23.5271
	minimum = 7
	maximum = 72
Slowest flit = 25505
Fragmentation average = 0
	minimum = 0
	maximum = 0
Injected packet rate average = 0.052875
	minimum = 0.036 (at node 13)
	maximum = 0.068 (at node 12)
Accepted packet rate average = 0.05075
	minimum = 0.032 (at node 7)
	maximum = 0.066 (at node 3)
Injected flit rate average = 0.052875
	minimum = 0.036 (at node 13)
	maximum = 0.068 (at node 12)
Accepted flit rate average= 0.05075
	minimum = 0.032 (at node 7)
	maximum = 0.066 (at node 3)
Injected packet length average = 1
Accepted packet length average = 1
Total in-flight flits = 17 (0 measured)
latency change    = 1
throughput change = 1
Class 0:
Packet latency average = 25.703
	minimum = 7
	maximum = 242
Network latency average = 25.5186
	minimum = 7
	maximum = 241
Slowest packet = 25846
Flit latency average = 25.5186
	minimum = 7
	maximum = 241
Slowest flit = 25846
Fragmentation average = 0
	minimum = 0
	maximum = 0
Injected packet rate average = 0.0515625
	minimum = 0.038 (at node 5)
	maximum = 0.062 (at node 2)
Accepted packet rate average = 0.0505
	minimum = 0.037 (at node 7)
	maximum = 0.061 (at node 8)
Injected flit rate average = 0.0515625
	minimum = 0.038 (at node 5)
	maximum = 0.062 (at node 2)
Accepted flit rate average= 0.0505
	minimum = 0.037 (at node 7)
	maximum = 0.061 (at node 8)
Injected packet length average = 1
Accepted packet length average = 1
Total in-flight flits = 17 (0 measured)
latency change    = 0.0838881
throughput change = 0.0049505
Class 0:
Packet latency average = 31.386
	minimum = 7
	maximum = 196
Network latency average = 30.5539
	minimum = 7
	maximum = 163
Slowest packet = 26105
Flit latency average = 30.5539
	minimum = 7
	maximum = 163
Slowest flit = 26105
Fragmentation average = 0
	minimum = 0
	maximum = 0
Injected packet rate average = 0.051
	minimum = 0.028 (at node 4)
	maximum = 0.072 (at node 15)
Accepted packet rate average = 0.049875
	minimum = 0.03 (at node 1)
	maximum = 0.072 (at node 15)
Injected flit rate average = 0.051
	minimum = 0.028 (at node 4)
	maximum = 0.072 (at node 15)
Accepted flit rate average= 0.049875
	minimum = 0.03 (at node 1)
	maximum = 0.072 (at node 15)
Injected packet length average = 1
Accepted packet length average = 1
Total in-flight flits = 26 (0 measured)
latency change    = 0.181068
throughput change = 0.0125313
Warmed up ...Time used is 1500 cycles
Class 0:
Packet latency average = 26.1738
	minimum = 7
	maximum = 137
Network latency average = 26.1738
	minimum = 7
	maximum = 137
Slowest packet = 26570
Flit latency average = 28.6675
	minimum = 7
	maximum = 171
Slowest flit = 26339
Fragmentation average = 0
	minimum = 0
	maximum = 0
Injected packet rate average = 0.04925
	minimum = 0.036 (at node 5)
	maximum = 0.066 (at node 11)
Accepted packet rate average = 0.05
	minimum = 0.036 (at node 5)
	maximum = 0.068 (at node 14)
Injected flit rate average = 0.04925
	minimum = 0.036 (at node 5)
	maximum = 0.066 (at node 11)
Accepted flit rate average= 0.05
	minimum = 0.036 (at node 5)
	maximum = 0.068 (at node 14)
Injected packet length average = 1
Accepted packet length average = 1
Total in-flight flits = 20 (20 measured)
latency change    = 0.199137
throughput change = 0.0025
Class 0:
Packet latency average = 24.7329
	minimum = 7
	maximum = 137
Network latency average = 24.7329
	minimum = 7
	maximum = 137
Slowest packet = 26570
Flit latency average = 26.0496
	minimum = 7
	maximum = 171
Slowest flit = 26339
Fragmentation average = 0
	minimum = 0
	maximum = 0
Injected packet rate average = 0.0489375
	minimum = 0.035 (at node 14)
	maximum = 0.06 (at node 4)
Accepted packet rate average = 0.049125
	minimum = 0.039 (at node 11)
	maximum = 0.061 (at node 6)
Injected flit rate average = 0.0489375
	minimum = 0.035 (at node 14)
	maximum = 0.06 (at node 4)
Accepted flit rate average= 0.049125
	minimum = 0.039 (at node 11)
	maximum = 0.061 (at node 6)
Injected packet length average = 1
Accepted packet length average = 1
Total in-flight flits = 23 (23 measured)
latency change    = 0.0582585
throughput change = 0.0178117
Class 0:
Packet latency average = 24.5485
	minimum = 7
	maximum = 137
Network latency average = 24.4841
	minimum = 7
	maximum = 137
Slowest packet = 26570
Flit latency average = 25.3585
	minimum = 7
	maximum = 171
Slowest flit = 26339
Fragmentation average = 0
	minimum = 0
	maximum = 0
Injected packet rate average = 0.049375
	minimum = 0.0393333 (at node 14)
	maximum = 0.0593333 (at node 9)
Accepted packet rate average = 0.049625
	minimum = 0.0413333 (at node 11)
	maximum = 0.0586667 (at node 6)
Injected flit rate average = 0.049375
	minimum = 0.0393333 (at node 14)
	maximum = 0.0593333 (at node 9)
Accepted flit rate average= 0.049625
	minimum = 0.0413333 (at node 11)
	maximum = 0.0586667 (at node 6)
Injected packet length average = 1
Accepted packet length average = 1
Total in-flight flits = 20 (20 measured)
latency change    = 0.00751153
throughput change = 0.0100756
Class 0:
Packet latency average = 26.0779
	minimum = 7
	maximum = 165
Network latency average = 25.9317
	minimum = 7
	maximum = 165
Slowest packet = 27872
Flit latency average = 26.5618
	minimum = 7
	maximum = 171
Slowest flit = 26339
Fragmentation average = 0
	minimum = 0
	maximum = 0
Injected packet rate average = 0.0498437
	minimum = 0.039 (at node 14)
	maximum = 0.059 (at node 9)
Accepted packet rate average = 0.0497812
	minimum = 0.0395 (at node 11)
	maximum = 0.0575 (at node 6)
Injected flit rate average = 0.0498437
	minimum = 0.039 (at node 14)
	maximum = 0.059 (at node 9)
Accepted flit rate average= 0.0497812
	minimum = 0.0395 (at node 11)
	maximum = 0.0575 (at node 6)
Injected packet length average = 1
Accepted packet length average = 1
Total in-flight flits = 28 (28 measured)
latency change    = 0.0586458
throughput change = 0.00313873
Class 0:
Packet latency average = 26.9718
	minimum = 7
	maximum = 214
Network latency average = 26.5488
	minimum = 7
	maximum = 165
Slowest packet = 27872
Flit latency average = 27.0398
	minimum = 7
	maximum = 171
Slowest flit = 26339
Fragmentation average = 0
	minimum = 0
	maximum = 0
Injected packet rate average = 0.05015
	minimum = 0.0416 (at node 14)
	maximum = 0.0576 (at node 9)
Accepted packet rate average = 0.0503
	minimum = 0.0424 (at node 11)
	maximum = 0.058 (at node 6)
Injected flit rate average = 0.05015
	minimum = 0.0416 (at node 14)
	maximum = 0.0576 (at node 9)
Accepted flit rate average= 0.0503
	minimum = 0.0424 (at node 11)
	maximum = 0.058 (at node 6)
Injected packet length average = 1
Accepted packet length average = 1
Total in-flight flits = 20 (20 measured)
latency change    = 0.0331438
throughput change = 0.0103131
Class 0:
Packet latency average = 28.0594
	minimum = 7
	maximum = 280
Network latency average = 27.0202
	minimum = 7
	maximum = 214
Slowest packet = 27872
Flit latency average = 27.4265
	minimum = 7
	maximum = 214
Slowest flit = 28521
Fragmentation average = 0
	minimum = 0
	maximum = 0
Injected packet rate average = 0.0500417
	minimum = 0.0413333 (at node 14)
	maximum = 0.057 (at node 12)
Accepted packet rate average = 0.0500208
	minimum = 0.0423333 (at node 11)
	maximum = 0.0566667 (at node 3)
Injected flit rate average = 0.0500417
	minimum = 0.0413333 (at node 14)
	maximum = 0.057 (at node 12)
Accepted flit rate average= 0.0500208
	minimum = 0.0423333 (at node 11)
	maximum = 0.0566667 (at node 3)
Injected packet length average = 1
Accepted packet length average = 1
Total in-flight flits = 28 (28 measured)
latency change    = 0.0387595
throughput change = 0.00558101
Class 0:
Packet latency average = 28.7258
	minimum = 7
	maximum = 287
Network latency average = 27.4352
	minimum = 7
	maximum = 251
Slowest packet = 27872
Flit latency average = 27.785
	minimum = 7
	maximum = 251
Slowest flit = 28954
Fragmentation average = 0
	minimum = 0
	maximum = 0
Injected packet rate average = 0.0492321
	minimum = 0.0442857 (at node 14)
	maximum = 0.054 (at node 7)
Accepted packet rate average = 0.04925
	minimum = 0.0442857 (at node 11)
	maximum = 0.0542857 (at node 13)
Injected flit rate average = 0.0492321
	minimum = 0.0442857 (at node 14)
	maximum = 0.054 (at node 7)
Accepted flit rate average= 0.04925
	minimum = 0.0442857 (at node 11)
	maximum = 0.0542857 (at node 13)
Injected packet length average = 1
Accepted packet length average = 1
Total in-flight flits = 26 (26 measured)
latency change    = 0.0232012
throughput change = 0.0156514
Draining all recorded packets ...
Draining remaining packets ...
Time taken is 5304 cycles
Class 0:
Packet latency average = 29.7467
	minimum = 7
	maximum = 284
Network latency average = 28.1044
	minimum = 7
	maximum = 237
Slowest packet = 29537
Flit latency average = 28.1044
	minimum = 7
	maximum = 237
Slowest flit = 29537
Fragmentation average = 0
	minimum = 0
	maximum = 0
Injected packet rate average = 0.05075
	minimum = 0.034 (at node 1)
	maximum = 0.07 (at node 9)
Accepted packet rate average = 0.047875
	minimum = 0.032 (at node 4)
	maximum = 0.068 (at node 6)
Injected flit rate average = 0.05075
	minimum = 0.034 (at node 1)
	maximum = 0.07 (at node 9)
Accepted flit rate average= 0.047875
	minimum = 0.032 (at node 4)
	maximum = 0.068 (at node 6)
Injected packet length average = 1
Accepted packet length average = 1
Total in-flight flits = 24 (0 measured)
latency change    = 1
throughput change = 1
Class 0:
Packet latency average = 33.5093
	minimum = 7
	maximum = 381
Network latency average = 29.0864
	minimum = 7
	maximum = 237
Slowest packet = 29537
Flit latency average = 29.0864
	minimum = 7
	maximum = 237
Slowest flit = 29537
Fragmentation average = 0
	minimum = 0
	maximum = 0
Injected packet rate average = 0.0485625
	minimum = 0.039 (at node 11)
	maximum = 0.06 (at node 14)
Accepted packet rate average = 0.047
	minimum = 0.039 (at node 14)
	maximum = 0.056 (at node 11)
Injected flit rate average = 0.0485625
	minimum = 0.039 (at node 11)
	maximum = 0.06 (at node 14)
Accepted flit rate average= 0.047
	minimum = 0.039 (at node 14)
	maximum = 0.056 (at node 11)
Injected packet length average = 1
Accepted packet length average = 1
Total in-flight flits = 26 (0 measured)
latency change    = 0.112284
throughput change = 0.018617
Class 0:
Packet latency average = 42.552
	minimum = 7
	maximum = 469
Network latency average = 31.2517
	minimum = 7
	maximum = 261
Slowest packet = 30122
Flit latency average = 31.2517
	minimum = 7
	maximum = 261
Slowest flit = 30127
Fragmentation average = 0
	minimum = 0
	maximum = 0
Injected packet rate average = 0.054375
	minimum = 0.042 (at node 8)
	maximum = 0.07 (at node 3)
Accepted packet rate average = 0.054125
	minimum = 0.04 (at node 2)
	maximum = 0.068 (at node 15)
Injected flit rate average = 0.054375
	minimum = 0.042 (at node 8)
	maximum = 0.07 (at node 3)
Accepted flit rate average= 0.054125
	minimum = 0.04 (at node 2)
	maximum = 0.068 (at node 15)
Injected packet length average = 1
Accepted packet length average = 1
Total in-flight flits = 28 (0 measured)
latency change    = 0.212509
throughput change = 0.13164
Warmed up ...Time used is 1500 cycles
Class 0:
Packet latency average = 35.4212
	minimum = 7
	maximum = 506
Network latency average = 27.8579
	minimum = 7
	maximum = 268
Slowest packet = 30642
Flit latency average = 31.3349
	minimum = 7
	maximum = 268
Slowest flit = 30769
Fragmentation average = 0
	minimum = 0
	maximum = 0
Injected packet rate average = 0.051125
	minimum = 0.042 (at node 13)
	maximum = 0.066 (at node 9)
Accepted packet rate average = 0.051875
	minimum = 0.042 (at node 7)
	maximum = 0.064 (at node 5)
Injected flit rate average = 0.051125
	minimum = 0.042 (at node 13)
	maximum = 0.066 (at node 9)
Accepted flit rate average= 0.051875
	minimum = 0.042 (at node 7)
	maximum = 0.064 (at node 5)
Injected packet length average = 1
Accepted packet length average = 1
Total in-flight flits = 22 (22 measured)
latency change    = 0.201314
throughput change = 0.0433735
Class 0:
Packet latency average = 42.1548
	minimum = 7
	maximum = 680
Network latency average = 28.6065
	minimum = 7
	maximum = 268
Slowest packet = 30642
Flit latency average = 30.3773
	minimum = 7
	maximum = 268
Slowest flit = 30769
Fragmentation average = 0
	minimum = 0
	maximum = 0
Injected packet rate average = 0.0499375
	minimum = 0.036 (at node 10)
	maximum = 0.066 (at node 9)
Accepted packet rate average = 0.0501875
	minimum = 0.036 (at node 10)
	maximum = 0.067 (at node 6)
Injected flit rate average = 0.0499375
	minimum = 0.036 (at node 10)
	maximum = 0.066 (at node 9)
Accepted flit rate average= 0.0501875
	minimum = 0.036 (at node 10)
	maximum = 0.067 (at node 6)
Injected packet length average = 1
Accepted packet length average = 1
Total in-flight flits = 24 (24 measured)
latency change    = 0.159736
throughput change = 0.0336239
Class 0:
Packet latency average = 48.2718
	minimum = 7
	maximum = 680
Network latency average = 29.0675
	minimum = 7
	maximum = 268
Slowest packet = 30642
Flit latency average = 30.2437
	minimum = 7
	maximum = 268
Slowest flit = 30769
Fragmentation average = 0
	minimum = 0
	maximum = 0
Injected packet rate average = 0.04975
	minimum = 0.0386667 (at node 10)
	maximum = 0.0626667 (at node 9)
Accepted packet rate average = 0.0499167
	minimum = 0.0386667 (at node 10)
	maximum = 0.064 (at node 6)
Injected flit rate average = 0.04975
	minimum = 0.0386667 (at node 10)
	maximum = 0.0626667 (at node 9)
Accepted flit rate average= 0.0499167
	minimum = 0.0386667 (at node 10)
	maximum = 0.064 (at node 6)
Injected packet length average = 1
Accepted packet length average = 1
Total in-flight flits = 24 (24 measured)
latency change    = 0.126719
throughput change = 0.00542571
Class 0:
Packet latency average = 45.8844
	minimum = 7
	maximum = 680
Network latency average = 28.9197
	minimum = 7
	maximum = 268
Slowest packet = 30642
Flit latency average = 29.8114
	minimum = 7
	maximum = 268
Slowest flit = 30769
Fragmentation average = 0
	minimum = 0
	maximum = 0
Injected packet rate average = 0.0494375
	minimum = 0.043 (at node 1)
	maximum = 0.0555 (at node 15)
Accepted packet rate average = 0.0495312
	minimum = 0.0425 (at node 4)
	maximum = 0.055 (at node 6)
Injected flit rate average = 0.0494375
	minimum = 0.043 (at node 1)
	maximum = 0.0555 (at node 15)
Accepted flit rate average= 0.0495312
	minimum = 0.0425 (at node 4)
	maximum = 0.055 (at node 6)
Injected packet length average = 1
Accepted packet length average = 1
Total in-flight flits = 25 (25 measured)
latency change    = 0.0520308
throughput change = 0.00778128
Class 0:
Packet latency average = 44.5509
	minimum = 7
	maximum = 680
Network latency average = 28.9824
	minimum = 7
	maximum = 268
Slowest packet = 30642
Flit latency average = 29.6832
	minimum = 7
	maximum = 268
Slowest flit = 30769
Fragmentation average = 0
	minimum = 0
	maximum = 0
Injected packet rate average = 0.0502
	minimum = 0.0444 (at node 7)
	maximum = 0.0572 (at node 2)
Accepted packet rate average = 0.05035
	minimum = 0.0444 (at node 2)
	maximum = 0.0572 (at node 8)
Injected flit rate average = 0.0502
	minimum = 0.0444 (at node 7)
	maximum = 0.0572 (at node 2)
Accepted flit rate average= 0.05035
	minimum = 0.0444 (at node 2)
	maximum = 0.0572 (at node 8)
Injected packet length average = 1
Accepted packet length average = 1
Total in-flight flits = 21 (21 measured)
latency change    = 0.0299329
throughput change = 0.0162612
Class 0:
Packet latency average = 44.1067
	minimum = 7
	maximum = 680
Network latency average = 29.1161
	minimum = 7
	maximum = 268
Slowest packet = 30642
Flit latency average = 29.7053
	minimum = 7
	maximum = 268
Slowest flit = 30769
Fragmentation average = 0
	minimum = 0
	maximum = 0
Injected packet rate average = 0.049625
	minimum = 0.0443333 (at node 12)
	maximum = 0.0553333 (at node 2)
Accepted packet rate average = 0.0497708
	minimum = 0.044 (at node 3)
	maximum = 0.0553333 (at node 8)
Injected flit rate average = 0.049625
	minimum = 0.0443333 (at node 12)
	maximum = 0.0553333 (at node 2)
Accepted flit rate average= 0.0497708
	minimum = 0.044 (at node 3)
	maximum = 0.0553333 (at node 8)
Injected packet length average = 1
Accepted packet length average = 1
Total in-flight flits = 21 (21 measured)
latency change    = 0.0100692
throughput change = 0.0116367
Class 0:
Packet latency average = 43.7456
	minimum = 7
	maximum = 680
Network latency average = 29.5546
	minimum = 7
	maximum = 270
Slowest packet = 30642
Flit latency average = 30.0524
	minimum = 7
	maximum = 270
Slowest flit = 32805
Fragmentation average = 0
	minimum = 0
	maximum = 0
Injected packet rate average = 0.0500179
	minimum = 0.0448571 (at node 12)
	maximum = 0.0562857 (at node 2)
Accepted packet rate average = 0.0500536
	minimum = 0.0454286 (at node 3)
	maximum = 0.0557143 (at node 8)
Injected flit rate average = 0.0500179
	minimum = 0.0448571 (at node 12)
	maximum = 0.0562857 (at node 2)
Accepted flit rate average= 0.0500536
	minimum = 0.0454286 (at node 3)
	maximum = 0.0557143 (at node 8)
Injected packet length average = 1
Accepted packet length average = 1
Total in-flight flits = 26 (26 measured)
latency change    = 0.00825566
throughput change = 0.00564871
Draining all recorded packets ...
Draining remaining packets ...
Time taken is 5474 cycles
Class 0:
Packet latency average = 25.545
	minimum = 7
	maximum = 135
Network latency average = 25.3111
	minimum = 7
	maximum = 135
Slowest packet = 33996
Flit latency average = 25.3111
	minimum = 7
	maximum = 135
Slowest flit = 33996
Fragmentation average = 0
	minimum = 0
	maximum = 0
Injected packet rate average = 0.051125
	minimum = 0.036 (at node 1)
	maximum = 0.062 (at node 10)
Accepted packet rate average = 0.048625
	minimum = 0.036 (at node 4)
	maximum = 0.062 (at node 10)
Injected flit rate average = 0.051125
	minimum = 0.036 (at node 1)
	maximum = 0.062 (at node 10)
Accepted flit rate average= 0.048625
	minimum = 0.036 (at node 4)
	maximum = 0.062 (at node 10)
Injected packet length average = 1
Accepted packet length average = 1
Total in-flight flits = 22 (0 measured)
latency change    = 1
throughput change = 1
Class 0:
Packet latency average = 32.5362
	minimum = 7
	maximum = 373
Network latency average = 29.4104
	minimum = 7
	maximum = 265
Slowest packet = 34018
Flit latency average = 29.4104
	minimum = 7
	maximum = 265
Slowest flit = 34103
Fragmentation average = 0
	minimum = 0
	maximum = 0
Injected packet rate average = 0.051
	minimum = 0.038 (at node 1)
	maximum = 0.064 (at node 14)
Accepted packet rate average = 0.0491875
	minimum = 0.037 (at node 4)
	maximum = 0.06 (at node 14)
Injected flit rate average = 0.051
	minimum = 0.038 (at node 1)
	maximum = 0.064 (at node 14)
Accepted flit rate average= 0.0491875
	minimum = 0.037 (at node 4)
	maximum = 0.06 (at node 14)
Injected packet length average = 1
Accepted packet length average = 1
Total in-flight flits = 31 (0 measured)
latency change    = 0.214875
throughput change = 0.0114358
Class 0:
Packet latency average = 50.3375
	minimum = 7
	maximum = 623
Network latency average = 35.129
	minimum = 7
	maximum = 263
Slowest packet = 34298
Flit latency average = 35.129
	minimum = 7
	maximum = 263
Slowest flit = 34400
Fragmentation average = 0
	minimum = 0
	maximum = 0
Injected packet rate average = 0.049875
	minimum = 0.032 (at node 13)
	maximum = 0.064 (at node 2)
Accepted packet rate average = 0.050375
	minimum = 0.032 (at node 14)
	maximum = 0.068 (at node 11)
Injected flit rate average = 0.049875
	minimum = 0.032 (at node 13)
	maximum = 0.064 (at node 2)
Accepted flit rate average= 0.050375
	minimum = 0.032 (at node 14)
	maximum = 0.068 (at node 11)
Injected packet length average = 1
Accepted packet length average = 1
Total in-flight flits = 27 (0 measured)
latency change    = 0.353638
throughput change = 0.0235732
Warmed up ...Time used is 1500 cycles
Class 0:
Packet latency average = 47.5117
	minimum = 7
	maximum = 662
Network latency average = 26.3995
	minimum = 7
	maximum = 201
Slowest packet = 34951
Flit latency average = 29.7317
	minimum = 7
	maximum = 242
Slowest flit = 34746
Fragmentation average = 0
	minimum = 0
	maximum = 0
Injected packet rate average = 0.051
	minimum = 0.036 (at node 2)
	maximum = 0.066 (at node 6)
Accepted packet rate average = 0.05125
	minimum = 0.04 (at node 2)
	maximum = 0.066 (at node 10)
Injected flit rate average = 0.051
	minimum = 0.036 (at node 2)
	maximum = 0.066 (at node 6)
Accepted flit rate average= 0.05125
	minimum = 0.04 (at node 2)
	maximum = 0.066 (at node 10)
Injected packet length average = 1
Accepted packet length average = 1
Total in-flight flits = 24 (24 measured)
latency change    = 0.0594741
throughput change = 0.0170732
Class 0:
Packet latency average = 49.7905
	minimum = 7
	maximum = 662
Network latency average = 28.6671
	minimum = 7
	maximum = 261
Slowest packet = 34951
Flit latency average = 30.2882
	minimum = 7
	maximum = 261
Slowest flit = 35273
Fragmentation average = 0
	minimum = 0
	maximum = 0
Injected packet rate average = 0.050125
	minimum = 0.041 (at node 1)
	maximum = 0.059 (at node 7)
Accepted packet rate average = 0.0503125
	minimum = 0.042 (at node 4)
	maximum = 0.061 (at node 13)
Injected flit rate average = 0.050125
	minimum = 0.041 (at node 1)
	maximum = 0.059 (at node 7)
Accepted flit rate average= 0.0503125
	minimum = 0.042 (at node 4)
	maximum = 0.061 (at node 13)
Injected packet length average = 1
Accepted packet length average = 1
Total in-flight flits = 23 (23 measured)
latency change    = 0.0457666
throughput change = 0.0186335
Class 0:
Packet latency average = 54.8599
	minimum = 7
	maximum = 752
Network latency average = 29.265
	minimum = 7
	maximum = 261
Slowest packet = 34951
Flit latency average = 30.3284
	minimum = 7
	maximum = 261
Slowest flit = 35273
Fragmentation average = 0
	minimum = 0
	maximum = 0
Injected packet rate average = 0.050375
	minimum = 0.0426667 (at node 2)
	maximum = 0.0613333 (at node 3)
Accepted packet rate average = 0.0505
	minimum = 0.0433333 (at node 8)
	maximum = 0.06 (at node 12)
Injected flit rate average = 0.050375
	minimum = 0.0426667 (at node 2)
	maximum = 0.0613333 (at node 3)
Accepted flit rate average= 0.0505
	minimum = 0.0433333 (at node 8)
	maximum = 0.06 (at node 12)
Injected packet length average = 1
Accepted packet length average = 1
Total in-flight flits = 23 (23 measured)
latency change    = 0.0924068
throughput change = 0.00371287
Class 0:
Packet latency average = 53.8437
	minimum = 7
	maximum = 752
Network latency average = 29.7078
	minimum = 7
	maximum = 262
Slowest packet = 34951
Flit latency average = 30.5053
	minimum = 7
	maximum = 262
Slowest flit = 36183
Fragmentation average = 0
	minimum = 0
	maximum = 0
Injected packet rate average = 0.0501562
	minimum = 0.04 (at node 9)
	maximum = 0.057 (at node 3)
Accepted packet rate average = 0.0500312
	minimum = 0.04 (at node 6)
	maximum = 0.0575 (at node 13)
Injected flit rate average = 0.0501562
	minimum = 0.04 (at node 9)
	maximum = 0.057 (at node 3)
Accepted flit rate average= 0.0500312
	minimum = 0.04 (at node 6)
	maximum = 0.0575 (at node 13)
Injected packet length average = 1
Accepted packet length average = 1
Total in-flight flits = 30 (30 measured)
latency change    = 0.0188732
throughput change = 0.00936914
Class 0:
Packet latency average = 54.9452
	minimum = 7
	maximum = 752
Network latency average = 30.0194
	minimum = 7
	maximum = 262
Slowest packet = 34951
Flit latency average = 30.6431
	minimum = 7
	maximum = 262
Slowest flit = 36183
Fragmentation average = 0
	minimum = 0
	maximum = 0
Injected packet rate average = 0.0509
	minimum = 0.0432 (at node 9)
	maximum = 0.0572 (at node 7)
Accepted packet rate average = 0.05085
	minimum = 0.0424 (at node 6)
	maximum = 0.0572 (at node 13)
Injected flit rate average = 0.0509
	minimum = 0.0432 (at node 9)
	maximum = 0.0572 (at node 7)
Accepted flit rate average= 0.05085
	minimum = 0.0424 (at node 6)
	maximum = 0.0572 (at node 13)
Injected packet length average = 1
Accepted packet length average = 1
Total in-flight flits = 28 (28 measured)
latency change    = 0.0200469
throughput change = 0.0161013
Class 0:
Packet latency average = 57.6266
	minimum = 7
	maximum = 932
Network latency average = 30.7031
	minimum = 7
	maximum = 267
Slowest packet = 34951
Flit latency average = 31.2171
	minimum = 7
	maximum = 267
Slowest flit = 37028
Fragmentation average = 0
	minimum = 0
	maximum = 0
Injected packet rate average = 0.0505833
	minimum = 0.045 (at node 4)
	maximum = 0.0553333 (at node 7)
Accepted packet rate average = 0.0506667
	minimum = 0.0446667 (at node 1)
	maximum = 0.0556667 (at node 13)
Injected flit rate average = 0.0505833
	minimum = 0.045 (at node 4)
	maximum = 0.0553333 (at node 7)
Accepted flit rate average= 0.0506667
	minimum = 0.0446667 (at node 1)
	maximum = 0.0556667 (at node 13)
Injected packet length average = 1
Accepted packet length average = 1
Total in-flight flits = 22 (22 measured)
latency change    = 0.0465309
throughput change = 0.00361842
Draining all recorded packets ...
Class 0:
Remaining flits: 37993 38025 38059 38097 38105 38121 38131 38133 38141 38144 [...] (28 flits)
Measured flits: 37993 38025 (2 flits)
Draining remaining packets ...
Time taken is 5673 cycles
Class 0:
Packet latency average = 29.5598
	minimum = 7
	maximum = 224
Network latency average = 28.1522
	minimum = 7
	maximum = 189
Slowest packet = 38415
Flit latency average = 28.1522
	minimum = 7
	maximum = 189
Slowest flit = 38456
Fragmentation average = 0
	minimum = 0
	maximum = 0
Injected packet rate average = 0.048625
	minimum = 0.032 (at node 14)
	maximum = 0.066 (at node 12)
Accepted packet rate average = 0.046
	minimum = 0.032 (at node 11)
	maximum = 0.06 (at node 2)
Injected flit rate average = 0.048625
	minimum = 0.032 (at node 14)
	maximum = 0.066 (at node 12)
Accepted flit rate average= 0.046
	minimum = 0.032 (at node 11)
	maximum = 0.06 (at node 2)
Injected packet length average = 1
Accepted packet length average = 1
Total in-flight flits = 22 (0 measured)
latency change    = 1
throughput change = 1
Class 0:
Packet latency average = 29.3225
	minimum = 7
	maximum = 224
Network latency average = 27.9676
	minimum = 7
	maximum = 206
Slowest packet = 38415
Flit latency average = 27.9676
	minimum = 7
	maximum = 206
Slowest flit = 38807
Fragmentation average = 0
	minimum = 0
	maximum = 0
Injected packet rate average = 0.04925
	minimum = 0.039 (at node 3)
	maximum = 0.062 (at node 12)
Accepted packet rate average = 0.04825
	minimum = 0.037 (at node 12)
	maximum = 0.061 (at node 3)
Injected flit rate average = 0.04925
	minimum = 0.039 (at node 3)
	maximum = 0.062 (at node 12)
Accepted flit rate average= 0.04825
	minimum = 0.037 (at node 12)
	maximum = 0.061 (at node 3)
Injected packet length average = 1
Accepted packet length average = 1
Total in-flight flits = 16 (0 measured)
latency change    = 0.00809083
throughput change = 0.0466321
Class 0:
Packet latency average = 22.9773
	minimum = 7
	maximum = 149
Network latency average = 22.9068
	minimum = 7
	maximum = 121
Slowest packet = 38937
Flit latency average = 22.9068
	minimum = 7
	maximum = 121
Slowest flit = 38937
Fragmentation average = 0
	minimum = 0
	maximum = 0
Injected packet rate average = 0.050875
	minimum = 0.032 (at node 13)
	maximum = 0.062 (at node 7)
Accepted packet rate average = 0.049625
	minimum = 0.032 (at node 9)
	maximum = 0.062 (at node 4)
Injected flit rate average = 0.050875
	minimum = 0.032 (at node 13)
	maximum = 0.062 (at node 7)
Accepted flit rate average= 0.049625
	minimum = 0.032 (at node 9)
	maximum = 0.062 (at node 4)
Injected packet length average = 1
Accepted packet length average = 1
Total in-flight flits = 26 (0 measured)
latency change    = 0.276151
throughput change = 0.0277078
Warmed up ...Time used is 1500 cycles
Class 0:
Packet latency average = 25.6461
	minimum = 7
	maximum = 96
Network latency average = 25.4326
	minimum = 7
	maximum = 96
Slowest packet = 39447
Flit latency average = 26.3613
	minimum = 7
	maximum = 120
Slowest flit = 39411
Fragmentation average = 0
	minimum = 0
	maximum = 0
Injected packet rate average = 0.047375
	minimum = 0.038 (at node 4)
	maximum = 0.06 (at node 12)
Accepted packet rate average = 0.04775
	minimum = 0.034 (at node 1)
	maximum = 0.068 (at node 3)
Injected flit rate average = 0.047375
	minimum = 0.038 (at node 4)
	maximum = 0.06 (at node 12)
Accepted flit rate average= 0.04775
	minimum = 0.034 (at node 1)
	maximum = 0.068 (at node 3)
Injected packet length average = 1
Accepted packet length average = 1
Total in-flight flits = 23 (23 measured)
latency change    = 0.10406
throughput change = 0.039267
Class 0:
Packet latency average = 24.0993
	minimum = 7
	maximum = 96
Network latency average = 23.9973
	minimum = 7
	maximum = 96
Slowest packet = 39447
Flit latency average = 24.5058
	minimum = 7
	maximum = 120
Slowest flit = 39411
Fragmentation average = 0
	minimum = 0
	maximum = 0
Injected packet rate average = 0.047625
	minimum = 0.038 (at node 5)
	maximum = 0.055 (at node 7)
Accepted packet rate average = 0.0481875
	minimum = 0.038 (at node 5)
	maximum = 0.057 (at node 13)
Injected flit rate average = 0.047625
	minimum = 0.038 (at node 5)
	maximum = 0.055 (at node 7)
Accepted flit rate average= 0.0481875
	minimum = 0.038 (at node 5)
[...]
Fragmentation average = 0
	minimum = 0
	maximum = 0
Injected packet rate average = 0.0483437
	minimum = 0.0385 (at node 5)
	maximum = 0.056 (at node 9)
Accepted packet rate average = 0.048625
	minimum = 0.0385 (at node 5)
	maximum = 0.0565 (at node 6)
Injected flit rate average = 0.0483437
	minimum = 0.0385 (at node 5)
	maximum = 0.056 (at node 9)
Accepted flit rate average= 0.048625
	minimum = 0.0385 (at node 5)
	maximum = 0.0565 (at node 6)
Injected packet length average = 1
Accepted packet length average = 1
Total in-flight flits = 21 (21 measured)
latency change    = 0.0137501
throughput change = 0.00342759
Class 0:
Packet latency average = 51.7301
	minimum = 7
	maximum = 734
Network latency average = 29.2364
	minimum = 7
	maximum = 261
Slowest packet = 189644
Flit latency average = 29.9531
	minimum = 7
	maximum = 261
Slowest flit = 189650
Fragmentation average = 0
	minimum = 0
	maximum = 0
Injected packet rate average = 0.04855
	minimum = 0.04 (at node 5)
	maximum = 0.0544 (at node 9)
Accepted packet rate average = 0.04855
	minimum = 0.04 (at node 5)
	maximum = 0.0548 (at node 6)
Injected flit rate average = 0.04855
	minimum = 0.04 (at node 5)
	maximum = 0.0544 (at node 9)
Accepted flit rate average= 0.04855
	minimum = 0.04 (at node 5)
	maximum = 0.0548 (at node 6)
Injected packet length average = 1
Accepted packet length average = 1
Total in-flight flits = 31 (31 measured)
latency change    = 0.042663
throughput change = 0.0015448
Class 0:
Packet latency average = 50.6855
	minimum = 7
	maximum = 734
Network latency average = 29.5646
	minimum = 7
	maximum = 261
Slowest packet = 189644
Flit latency average = 30.158
	minimum = 7
	maximum = 261
Slowest flit = 189650
Fragmentation average = 0
	minimum = 0
	maximum = 0
Injected packet rate average = 0.0483958
	minimum = 0.0413333 (at node 5)
	maximum = 0.052 (at node 10)
Accepted packet rate average = 0.0485208
	minimum = 0.0413333 (at node 5)
	maximum = 0.0523333 (at node 6)
Injected flit rate average = 0.0483958
	minimum = 0.0413333 (at node 5)
	maximum = 0.052 (at node 10)
Accepted flit rate average= 0.0485208
	minimum = 0.0413333 (at node 5)
	maximum = 0.0523333 (at node 6)
Injected packet length average = 1
Accepted packet length average = 1
Total in-flight flits = 24 (24 measured)
latency change    = 0.0206096
throughput change = 0.000601116
Draining all recorded packets ...
Draining remaining packets ...
Time taken is 4768 cycles
Class 0:
Packet latency average = 27.2762
	minimum = 7
	maximum = 155
Network latency average = 27.0512
	minimum = 7
	maximum = 155
Slowest packet = 192172
Flit latency average = 27.0512
	minimum = 7
	maximum = 155
Slowest flit = 192172
Fragmentation average = 0
	minimum = 0
	maximum = 0
Injected packet rate average = 0.051875
	minimum = 0.036 (at node 9)
	maximum = 0.084 (at node 5)
Accepted packet rate average = 0.048875
	minimum = 0.034 (at node 12)
	maximum = 0.08 (at node 5)
Injected flit rate average = 0.051875
	minimum = 0.036 (at node 9)
	maximum = 0.084 (at node 5)
Accepted flit rate average= 0.048875
	minimum = 0.034 (at node 12)
	maximum = 0.08 (at node 5)
Injected packet length average = 1
Accepted packet length average = 1
Total in-flight flits = 26 (0 measured)
latency change    = 1
throughput change = 1
Class 0:
Packet latency average = 31.4747
	minimum = 7
	maximum = 402
Network latency average = 29.0418
	minimum = 7
	maximum = 261
Slowest packet = 192507
Flit latency average = 29.0418
	minimum = 7
	maximum = 261
Slowest flit = 192507
Fragmentation average = 0
	minimum = 0
	maximum = 0
Injected packet rate average = 0.050875
	minimum = 0.04 (at node 9)
	maximum = 0.062 (at node 5)
Accepted packet rate average = 0.049375
	minimum = 0.039 (at node 6)
	maximum = 0.062 (at node 5)
Injected flit rate average = 0.050875
	minimum = 0.04 (at node 9)
	maximum = 0.062 (at node 5)
Accepted flit rate average= 0.049375
	minimum = 0.039 (at node 6)
	maximum = 0.062 (at node 5)
Injected packet length average = 1
Accepted packet length average = 1
Total in-flight flits = 25 (0 measured)
latency change    = 0.133392
throughput change = 0.0101266
Class 0:
Packet latency average = 45.0584
	minimum = 7
	maximum = 637
Network latency average = 31.2107
	minimum = 7
	maximum = 264
Slowest packet = 192730
Flit latency average = 31.2107
	minimum = 7
	maximum = 264
Slowest flit = 193044
Fragmentation average = 0
	minimum = 0
	maximum = 0
Injected packet rate average = 0.048875
	minimum = 0.036 (at node 5)
	maximum = 0.076 (at node 1)
Accepted packet rate average = 0.04925
	minimum = 0.036 (at node 5)
	maximum = 0.076 (at node 4)
Injected flit rate average = 0.048875
	minimum = 0.036 (at node 5)
	maximum = 0.076 (at node 1)
Accepted flit rate average= 0.04925
	minimum = 0.036 (at node 5)
	maximum = 0.076 (at node 4)
Injected packet length average = 1
Accepted packet length average = 1
Total in-flight flits = 22 (0 measured)
latency change    = 0.301469
throughput change = 0.00253807
Warmed up ...Time used is 1500 cycles
Class 0:
Packet latency average = 54.7726
	minimum = 7
	maximum = 619
Network latency average = 26.0321
	minimum = 7
	maximum = 172
Slowest packet = 193328
Flit latency average = 28.9616
	minimum = 7
	maximum = 264
Slowest flit = 193090
Fragmentation average = 0
	minimum = 0
	maximum = 0
Injected packet rate average = 0.046125
	minimum = 0.036 (at node 6)
	maximum = 0.06 (at node 4)
Accepted packet rate average = 0.045625
	minimum = 0.036 (at node 9)
	maximum = 0.062 (at node 1)
Injected flit rate average = 0.046125
	minimum = 0.036 (at node 6)
	maximum = 0.06 (at node 4)
Accepted flit rate average= 0.045625
	minimum = 0.036 (at node 9)
	maximum = 0.062 (at node 1)
Injected packet length average = 1
Accepted packet length average = 1
Total in-flight flits = 26 (26 measured)
latency change    = 0.177355
throughput change = 0.0794521
Class 0:
Packet latency average = 49.8049
	minimum = 7
	maximum = 648
Network latency average = 28.5724
	minimum = 7
	maximum = 249
Slowest packet = 193328
Flit latency average = 29.8455
	minimum = 7
	maximum = 264
Slowest flit = 193090
Fragmentation average = 0
	minimum = 0
	maximum = 0
Injected packet rate average = 0.0500625
	minimum = 0.039 (at node 3)
	maximum = 0.058 (at node 4)
Accepted packet rate average = 0.04975
	minimum = 0.039 (at node 12)
	maximum = 0.057 (at node 0)
Injected flit rate average = 0.0500625
	minimum = 0.039 (at node 3)
	maximum = 0.058 (at node 4)
Accepted flit rate average= 0.04975
	minimum = 0.039 (at node 12)
	maximum = 0.057 (at node 0)
Injected packet length average = 1
Accepted packet length average = 1
Total in-flight flits = 27 (27 measured)
latency change    = 0.0997429
throughput change = 0.0829146
Class 0:
Packet latency average = 48.703
	minimum = 7
	maximum = 648
Network latency average = 28.6575
	minimum = 7
	maximum = 252
Slowest packet = 193328
Flit latency average = 29.5097
	minimum = 7
	maximum = 264
Slowest flit = 193090
Fragmentation average = 0
	minimum = 0
	maximum = 0
Injected packet rate average = 0.0494167
	minimum = 0.042 (at node 3)
	maximum = 0.0626667 (at node 4)
Accepted packet rate average = 0.0494583
	minimum = 0.0426667 (at node 12)
	maximum = 0.0626667 (at node 1)
Injected flit rate average = 0.0494167
	minimum = 0.042 (at node 3)
	maximum = 0.0626667 (at node 4)
Accepted flit rate average= 0.0494583
	minimum = 0.0426667 (at node 12)
	maximum = 0.0626667 (at node 1)
Injected packet length average = 1
Accepted packet length average = 1
Total in-flight flits = 20 (20 measured)
latency change    = 0.022625
throughput change = 0.00589722
Class 0:
Packet latency average = 43.7661
	minimum = 7
	maximum = 648
Network latency average = 28.1877
	minimum = 7
	maximum = 252
Slowest packet = 193328
Flit latency average = 28.8352
	minimum = 7
	maximum = 264
Slowest flit = 193090
Fragmentation average = 0
	minimum = 0
	maximum = 0
Injected packet rate average = 0.049625
	minimum = 0.041 (at node 8)
	maximum = 0.064 (at node 0)
Accepted packet rate average = 0.0493125
	minimum = 0.0405 (at node 2)
	maximum = 0.0635 (at node 0)
Injected flit rate average = 0.049625
	minimum = 0.041 (at node 8)
	maximum = 0.064 (at node 0)
Accepted flit rate average= 0.0493125
	minimum = 0.0405 (at node 2)
	maximum = 0.0635 (at node 0)
Injected packet length average = 1
Accepted packet length average = 1
Total in-flight flits = 32 (32 measured)
latency change    = 0.112803
throughput change = 0.00295733
Class 0:
Packet latency average = 42.5568
	minimum = 7
	maximum = 648
Network latency average = 29.4452
	minimum = 7
	maximum = 272
Slowest packet = 193328
Flit latency average = 29.9484
	minimum = 7
	maximum = 272
Slowest flit = 195026
Fragmentation average = 0
	minimum = 0
	maximum = 0
Injected packet rate average = 0.0496
	minimum = 0.0432 (at node 7)
	maximum = 0.0616 (at node 0)
Accepted packet rate average = 0.0494
	minimum = 0.042 (at node 13)
	maximum = 0.0612 (at node 0)
Injected flit rate average = 0.0496
	minimum = 0.0432 (at node 7)
	maximum = 0.0616 (at node 0)
Accepted flit rate average= 0.0494
	minimum = 0.042 (at node 13)
	maximum = 0.0612 (at node 0)
Injected packet length average = 1
Accepted packet length average = 1
Total in-flight flits = 31 (31 measured)
latency change    = 0.0284152
throughput change = 0.00177126
Class 0:
Packet latency average = 43.383
	minimum = 7
	maximum = 648
Network latency average = 29.9201
	minimum = 7
	maximum = 272
Slowest packet = 193328
Flit latency average = 30.3386
	minimum = 7
	maximum = 272
Slowest flit = 195026
Fragmentation average = 0
	minimum = 0
	maximum = 0
Injected packet rate average = 0.0490417
	minimum = 0.0426667 (at node 3)
	maximum = 0.0593333 (at node 0)
Accepted packet rate average = 0.0489792
	minimum = 0.042 (at node 13)
	maximum = 0.0593333 (at node 0)
Injected flit rate average = 0.0490417
	minimum = 0.0426667 (at node 3)
	maximum = 0.0593333 (at node 0)
Accepted flit rate average= 0.0489792
	minimum = 0.042 (at node 13)
	maximum = 0.0593333 (at node 0)
Injected packet length average = 1
Accepted packet length average = 1
Total in-flight flits = 25 (25 measured)
latency change    = 0.0190441
throughput change = 0.00859209
Class 0:
Packet latency average = 43.4644
	minimum = 7
	maximum = 648
Network latency average = 30.0483
	minimum = 7
	maximum = 272
Slowest packet = 193328
Flit latency average = 30.4041
	minimum = 7
	maximum = 272
Slowest flit = 195026
Fragmentation average = 0
	minimum = 0
	maximum = 0
Injected packet rate average = 0.0493393
	minimum = 0.0425714 (at node 15)
	maximum = 0.0582857 (at node 0)
Accepted packet rate average = 0.0492321
	minimum = 0.0422857 (at node 15)
	maximum = 0.0585714 (at node 0)
Injected flit rate average = 0.0493393
	minimum = 0.0425714 (at node 15)
	maximum = 0.0582857 (at node 0)
Accepted flit rate average= 0.0492321
	minimum = 0.0422857 (at node 15)
	maximum = 0.0585714 (at node 0)
Injected packet length average = 1
Accepted packet length average = 1
Total in-flight flits = 28 (28 measured)
latency change    = 0.00187174
throughput change = 0.00513844
Draining all recorded packets ...
Draining remaining packets ...
Time taken is 5599 cycles
Class 0:
Packet latency average = 24.1549
	minimum = 7
	maximum = 217
Network latency average = 24.0563
	minimum = 7
	maximum = 217
Slowest packet = 196676
Flit latency average = 24.0563
	minimum = 7
	maximum = 217
Slowest flit = 196676
Fragmentation average = 0
	minimum = 0
	maximum = 0
Injected packet rate average = 0.04675
	minimum = 0.034 (at node 8)
	maximum = 0.058 (at node 0)
Accepted packet rate average = 0.044375
	minimum = 0.03 (at node 7)
	maximum = 0.058 (at node 0)
Injected flit rate average = 0.04675
	minimum = 0.034 (at node 8)
	maximum = 0.058 (at node 0)
Accepted flit rate average= 0.044375
	minimum = 0.03 (at node 7)
	maximum = 0.058 (at node 0)
Injected packet length average = 1
Accepted packet length average = 1
Total in-flight flits = 19 (0 measured)
latency change    = 1
throughput change = 1
Class 0:
Packet latency average = 25.2851
	minimum = 7
	maximum = 228
Network latency average = 25.0915
	minimum = 7
	maximum = 222
Slowest packet = 196704
Flit latency average = 25.0915
	minimum = 7
	maximum = 222
Slowest flit = 196704
Fragmentation average = 0
	minimum = 0
	maximum = 0
Injected packet rate average = 0.04875
	minimum = 0.033 (at node 8)
	maximum = 0.064 (at node 12)
Accepted packet rate average = 0.047125
	minimum = 0.032 (at node 2)
	maximum = 0.06 (at node 13)
Injected flit rate average = 0.04875
	minimum = 0.033 (at node 8)
	maximum = 0.064 (at node 12)
Accepted flit rate average= 0.047125
	minimum = 0.032 (at node 2)
	maximum = 0.06 (at node 13)
Injected packet length average = 1
Accepted packet length average = 1
Total in-flight flits = 26 (0 measured)
latency change    = 0.0446988
throughput change = 0.0583554
Class 0:
Packet latency average = 30.9489
	minimum = 7
	maximum = 190
Network latency average = 29.6204
	minimum = 7
	maximum = 184
Slowest packet = 197504
Flit latency average = 29.6204
	minimum = 7
	maximum = 184
Slowest flit = 197504
Fragmentation average = 0
	minimum = 0
	maximum = 0
Injected packet rate average = 0.051125
	minimum = 0.028 (at node 0)
	maximum = 0.076 (at node 10)
Accepted packet rate average = 0.051375
	minimum = 0.03 (at node 0)
	maximum = 0.078 (at node 10)
Injected flit rate average = 0.051125
	minimum = 0.028 (at node 0)
	maximum = 0.076 (at node 10)
Accepted flit rate average= 0.051375
	minimum = 0.03 (at node 0)
	maximum = 0.078 (at node 10)
Injected packet length average = 1
Accepted packet length average = 1
Total in-flight flits = 24 (0 measured)
latency change    = 0.183004
throughput change = 0.0827251
Warmed up ...Time used is 1500 cycles
Class 0:
Packet latency average = 26.152
	minimum = 7
	maximum = 145
Network latency average = 25.9534
	minimum = 7
	maximum = 145
Slowest packet = 197691
Flit latency average = 27.6921
	minimum = 7
	maximum = 170
Slowest flit = 197621
Fragmentation average = 0
	minimum = 0
	maximum = 0
Injected packet rate average = 0.054375
	minimum = 0.042 (at node 4)
	maximum = 0.082 (at node 9)
Accepted packet rate average = 0.054
	minimum = 0.04 (at node 2)
	maximum = 0.082 (at node 6)
Injected flit rate average = 0.054375
	minimum = 0.042 (at node 4)
	maximum = 0.082 (at node 9)
Accepted flit rate average= 0.054
	minimum = 0.04 (at node 2)
	maximum = 0.082 (at node 6)
Injected packet length average = 1
Accepted packet length average = 1
Total in-flight flits = 27 (27 measured)
latency change    = 0.183426
throughput change = 0.0486111
Class 0:
Packet latency average = 30.5056
	minimum = 7
	maximum = 321
Network latency average = 29.5502
	minimum = 7
	maximum = 262
Slowest packet = 198154
Flit latency average = 30.3502
	minimum = 7
	maximum = 262
Slowest flit = 198154
Fragmentation average = 0
	minimum = 0
	maximum = 0
Injected packet rate average = 0.05225
	minimum = 0.037 (at node 4)
	maximum = 0.07 (at node 9)
Accepted packet rate average = 0.0519375
	minimum = 0.037 (at node 1)
	maximum = 0.07 (at node 6)
Injected flit rate average = 0.05225
	minimum = 0.037 (at node 4)
	maximum = 0.07 (at node 9)
Accepted flit rate average= 0.0519375
	minimum = 0.037 (at node 1)
	maximum = 0.07 (at node 6)
Injected packet length average = 1
Accepted packet length average = 1
Total in-flight flits = 31 (31 measured)
latency change    = 0.142715
throughput change = 0.0397112
Class 0:
Packet latency average = 35.3987
	minimum = 7
	maximum = 444
Network latency average = 30.7178
	minimum = 7
	maximum = 264
Slowest packet = 198154
Flit latency average = 31.2301
	minimum = 7
	maximum = 264
Slowest flit = 198396
Fragmentation average = 0
	minimum = 0
	maximum = 0
Injected packet rate average = 0.0517083
	minimum = 0.0446667 (at node 4)
	maximum = 0.062 (at node 9)
Accepted packet rate average = 0.0517917
	minimum = 0.044 (at node 7)
	maximum = 0.0613333 (at node 6)
Injected flit rate average = 0.0517083
	minimum = 0.0446667 (at node 4)
	maximum = 0.062 (at node 9)
Accepted flit rate average= 0.0517917
	minimum = 0.044 (at node 7)
	maximum = 0.0613333 (at node 6)
Injected packet length average = 1
Accepted packet length average = 1
Total in-flight flits = 23 (23 measured)
latency change    = 0.138229
throughput change = 0.00281577
Class 0:
Packet latency average = 36.4356
	minimum = 7
	maximum = 444
Network latency average = 30.9512
	minimum = 7
	maximum = 264
Slowest packet = 198154
Flit latency average = 31.3307
	minimum = 7
	maximum = 264
Slowest flit = 198396
Fragmentation average = 0
	minimum = 0
	maximum = 0
Injected packet rate average = 0.051875
	minimum = 0.046 (at node 6)
	maximum = 0.0585 (at node 9)
Accepted packet rate average = 0.0519688
	minimum = 0.0465 (at node 7)
	maximum = 0.0595 (at node 6)
Injected flit rate average = 0.051875
	minimum = 0.046 (at node 6)
	maximum = 0.0585 (at node 9)
Accepted flit rate average= 0.0519688
	minimum = 0.0465 (at node 7)
	maximum = 0.0595 (at node 6)
Injected packet length average = 1
Accepted packet length average = 1
Total in-flight flits = 22 (22 measured)
latency change    = 0.0284596
throughput change = 0.0034075
Class 0:
Packet latency average = 36.9729
	minimum = 7
	maximum = 444
Network latency average = 30.4855
	minimum = 7
	maximum = 264
Slowest packet = 198154
Flit latency average = 30.7978
	minimum = 7
	maximum = 264
Slowest flit = 198396
Fragmentation average = 0
	minimum = 0
	maximum = 0
Injected packet rate average = 0.05125
	minimum = 0.0464 (at node 1)
	maximum = 0.0576 (at node 2)
Accepted packet rate average = 0.051425
	minimum = 0.0472 (at node 0)
	maximum = 0.0576 (at node 8)
Injected flit rate average = 0.05125
	minimum = 0.0464 (at node 1)
	maximum = 0.0576 (at node 2)
Accepted flit rate average= 0.051425
	minimum = 0.0472 (at node 0)
	maximum = 0.0576 (at node 8)
Injected packet length average = 1
Accepted packet length average = 1
Total in-flight flits = 18 (18 measured)
latency change    = 0.0145327
throughput change = 0.0105737
Class 0:
Packet latency average = 37.6501
	minimum = 7
	maximum = 444
Network latency average = 30.3396
	minimum = 7
	maximum = 264
Slowest packet = 198154
Flit latency average = 30.6047
	minimum = 7
	maximum = 264
Slowest flit = 198396
Fragmentation average = 0
	minimum = 0
	maximum = 0
Injected packet rate average = 0.0507708
	minimum = 0.0446667 (at node 4)
	maximum = 0.0563333 (at node 10)
Accepted packet rate average = 0.05075
	minimum = 0.044 (at node 1)
	maximum = 0.0566667 (at node 10)
Injected flit rate average = 0.0507708
	minimum = 0.0446667 (at node 4)
	maximum = 0.0563333 (at node 10)
Accepted flit rate average= 0.05075
	minimum = 0.044 (at node 1)
	maximum = 0.0566667 (at node 10)
Injected packet length average = 1
Accepted packet length average = 1
Total in-flight flits = 26 (26 measured)
latency change    = 0.017985
throughput change = 0.0133005
Draining all recorded packets ...
Draining remaining packets ...
Time taken is 4884 cycles
====== Overall Traffic Statistics ======
====== Traffic class 0 ======
Packet latency average = 44.1446 (50 samples)
	minimum = 7 (50 samples)
	maximum = 631.66 (50 samples)
Network latency average = 30.0212 (50 samples)
	minimum = 7 (50 samples)
	maximum = 256.38 (50 samples)
Flit latency average = 29.7226 (50 samples)
	minimum = 7 (50 samples)
	maximum = 256.48 (50 samples)
Fragmentation average = 0 (50 samples)
	minimum = 0 (50 samples)
	maximum = 0 (50 samples)
Injected packet rate average = 0.0499079 (50 samples)
	minimum = 0.0429467 (50 samples)
	maximum = 0.056515 (50 samples)
Accepted packet rate average = 0.0499152 (50 samples)
	minimum = 0.0428022 (50 samples)
	maximum = 0.0564909 (50 samples)
Injected flit rate average = 0.0499079 (50 samples)
	minimum = 0.0429467 (50 samples)
	maximum = 0.056515 (50 samples)
Accepted flit rate average = 0.0499152 (50 samples)
	minimum = 0.0428022 (50 samples)
	maximum = 0.0564909 (50 samples)
Injected packet size average = 1 (50 samples)
Accepted packet size average = 1 (50 samples)
Hops average = 3.49877 (50 samples)
Total run time 3.26149
