BEGIN Configuration File: /tmp/tmpbu2kj0uw.cfg
topology = mesh;
k = 4;
n = 2;
routing_function = dor;
num_vcs = 4;
vc_buf_size = 4;
wait_for_tail_credit = 1;
vc_allocator = islip;
sw_allocator = islip;
alloc_iters = 1;
credit_delay = 2;
routing_delay = 1;
vc_alloc_delay = 1;
sw_alloc_delay = 1;
input_speedup = 2;
output_speedup = 1;
internal_speedup = 1.0;
traffic = uniform;
packet_size = 1;
sim_type = latency;
injection_rate = 0.05;
warmup_periods = 3;
sample_period = 500;
sim_count = 50;
seed = 0;
link_failures = 7;
fail_seed = 101;

END Configuration File: /tmp/tmpbu2kj0uw.cfg
failure at node 14, channel 0 (1/7)
failure at node 12, channel 0 (2/7)
failure at node 4, channel 2 (3/7)
failure at node 11, channel 1 (4/7)
failure at node 5, channel 3 (5/7)
failure at node 9, channel 0 (6/7)
failure at node 8, channel 3 (7/7)
Class 0:
Packet latency average = 19.2364
	minimum = 7
	maximum = 37
Network latency average = 19.2364
	minimum = 7
	maximum = 37
Slowest packet = 65
Flit latency average = 19.2364
	minimum = 7
	maximum = 37
Slowest flit = 65
Fragmentation average = 0
	minimum = 0
	maximum = 0
Injected packet rate average = 0.049625
	minimum = 0.032 (at node 8)
	maximum = 0.064 (at node 13)
Accepted packet rate average = 0.048125
	minimum = 0.024 (at node 11)
	maximum = 0.064 (at node 2)
Injected flit rate average = 0.049625
	minimum = 0.032 (at node 8)
	maximum = 0.064 (at node 13)
Accepted flit rate average= 0.048125
	minimum = 0.024 (at node 11)
	maximum = 0.064 (at node 2)
Injected packet length average = 1
Accepted packet length average = 1
Total in-flight flits = 12 (0 measured)
latency change    = 1
throughput change = 1
Class 0:
Packet latency average = 19.323
	minimum = 7
	maximum = 38
Network latency average = 19.323
	minimum = 7
	maximum = 38
Slowest packet = 369
Flit latency average = 19.323
	minimum = 7
	maximum = 38
Slowest flit = 369
Fragmentation average = 0
	minimum = 0
	maximum = 0
Injected packet rate average = 0.048875
	minimum = 0.041 (at node 5)
	maximum = 0.054 (at node 1)
Accepted packet rate average = 0.0481875
	minimum = 0.038 (at node 11)
	maximum = 0.054 (at node 0)
Injected flit rate average = 0.048875
	minimum = 0.041 (at node 5)
	maximum = 0.054 (at node 1)
Accepted flit rate average= 0.0481875
	minimum = 0.038 (at node 11)
	maximum = 0.054 (at node 0)
Injected packet length average = 1
Accepted packet length average = 1
Total in-flight flits = 11 (0 measured)
latency change    = 0.00448138
throughput change = 0.00129702
Class 0:
Packet latency average = 19.9179
	minimum = 7
	maximum = 37
Network latency average = 19.9179
	minimum = 7
	maximum = 37
Slowest packet = 813
Flit latency average = 19.9179
	minimum = 7
	maximum = 37
Slowest flit = 813
Fragmentation average = 0
	minimum = 0
	maximum = 0
Injected packet rate average = 0.05025
	minimum = 0.032 (at node 11)
	maximum = 0.064 (at node 12)
Accepted packet rate average = 0.04875
	minimum = 0.032 (at node 0)
	maximum = 0.064 (at node 7)
Injected flit rate average = 0.05025
	minimum = 0.032 (at node 11)
	maximum = 0.064 (at node 12)
Accepted flit rate average= 0.04875
	minimum = 0.032 (at node 0)
	maximum = 0.064 (at node 7)
Injected packet length average = 1
Accepted packet length average = 1
Total in-flight flits = 23 (0 measured)
latency change    = 0.0298721
throughput change = 0.0115385
Warmed up ...Time used is 1500 cycles
Class 0:
Packet latency average = 19.2846
	minimum = 7
	maximum = 37
Network latency average = 19.2846
	minimum = 7
	maximum = 37
Slowest packet = 1307
Flit latency average = 19.3559
	minimum = 7
	maximum = 37
Slowest flit = 1307
Fragmentation average = 0
	minimum = 0
	maximum = 0
Injected packet rate average = 0.0485
	minimum = 0.036 (at node 9)
	maximum = 0.066 (at node 13)
Accepted packet rate average = 0.049875
	minimum = 0.03 (at node 2)
	maximum = 0.07 (at node 11)
Injected flit rate average = 0.0485
	minimum = 0.036 (at node 9)
	maximum = 0.066 (at node 13)
Accepted flit rate average= 0.049875
	minimum = 0.03 (at node 2)
	maximum = 0.07 (at node 11)
Injected packet length average = 1
Accepted packet length average = 1
Total in-flight flits = 12 (12 measured)
latency change    = 0.0328436
throughput change = 0.0225564
Class 0:
Packet latency average = 19.2522
	minimum = 7
	maximum = 37
Network latency average = 19.2522
	minimum = 7
	maximum = 37
Slowest packet = 1307
Flit latency average = 19.2878
	minimum = 7
	maximum = 37
Slowest flit = 1307
Fragmentation average = 0
	minimum = 0
	maximum = 0
Injected packet rate average = 0.0505625
	minimum = 0.04 (at node 9)
	maximum = 0.064 (at node 13)
Accepted packet rate average = 0.05125
	minimum = 0.036 (at node 2)
	maximum = 0.064 (at node 8)
Injected flit rate average = 0.0505625
	minimum = 0.04 (at node 9)
	maximum = 0.064 (at node 13)
Accepted flit rate average= 0.05125
	minimum = 0.036 (at node 2)
	maximum = 0.064 (at node 8)
Injected packet length average = 1
Accepted packet length average = 1
Total in-flight flits = 12 (12 measured)
latency change    = 0.00168182
throughput change = 0.0268293
Class 0:
Packet latency average = 19.4394
	minimum = 7
	maximum = 38
Network latency average = 19.4394
	minimum = 7
	maximum = 38
Slowest packet = 2121
Flit latency average = 19.4598
	minimum = 7
	maximum = 38
Slowest flit = 2121
Fragmentation average = 0
	minimum = 0
	maximum = 0
Injected packet rate average = 0.0507083
	minimum = 0.044 (at node 9)
	maximum = 0.0566667 (at node 11)
Accepted packet rate average = 0.0508333
	minimum = 0.0406667 (at node 4)
	maximum = 0.0593333 (at node 11)
Injected flit rate average = 0.0507083
	minimum = 0.044 (at node 9)
	maximum = 0.0566667 (at node 11)
Accepted flit rate average= 0.0508333
	minimum = 0.0406667 (at node 4)
	maximum = 0.0593333 (at node 11)
Injected packet length average = 1
Accepted packet length average = 1
Total in-flight flits = 20 (20 measured)
latency change    = 0.00963177
throughput change = 0.00819672
Draining all recorded packets ...
Draining remaining packets ...
Time taken is 3052 cycles
Class 0:
Packet latency average = 19.8351
	minimum = 7
	maximum = 37
Network latency average = 19.8351
	minimum = 7
	maximum = 37
Slowest packet = 2457
Flit latency average = 19.8351
	minimum = 7
	maximum = 37
Slowest flit = 2457
Fragmentation average = 0
	minimum = 0
	maximum = 0
Injected packet rate average = 0.050125
	minimum = 0.042 (at node 0)
	maximum = 0.068 (at node 15)
Accepted packet rate average = 0.047
	minimum = 0.024 (at node 15)
	maximum = 0.062 (at node 6)
Injected flit rate average = 0.050125
	minimum = 0.042 (at node 0)
	maximum = 0.068 (at node 15)
Accepted flit rate average= 0.047
	minimum = 0.024 (at node 15)
	maximum = 0.062 (at node 6)
Injected packet length average = 1
Accepted packet length average = 1
Total in-flight flits = 25 (0 measured)
latency change    = 1
throughput change = 1
Class 0:
Packet latency average = 19.7143
	minimum = 7
	maximum = 38
Network latency average = 19.7143
	minimum = 7
	maximum = 38
Slowest packet = 3105
Flit latency average = 19.7143
	minimum = 7
	maximum = 38
Slowest flit = 3105
Fragmentation average = 0
	minimum = 0
	maximum = 0
Injected packet rate average = 0.048
	minimum = 0.035 (at node 0)
	maximum = 0.059 (at node 15)
Accepted packet rate average = 0.0468125
	minimum = 0.034 (at node 15)
	maximum = 0.059 (at node 2)
Injected flit rate average = 0.048
	minimum = 0.035 (at node 0)
	maximum = 0.059 (at node 15)
Accepted flit rate average= 0.0468125
	minimum = 0.034 (at node 15)
	maximum = 0.059 (at node 2)
Injected packet length average = 1
Accepted packet length average = 1
Total in-flight flits = 19 (0 measured)
latency change    = 0.00612858
throughput change = 0.00400534
Class 0:
Packet latency average = 19.392
	minimum = 7
	maximum = 37
Network latency average = 19.392
	minimum = 7
	maximum = 37
Slowest packet = 3186
Flit latency average = 19.392
	minimum = 7
	maximum = 37
Slowest flit = 3186
Fragmentation average = 0
	minimum = 0
	maximum = 0
Injected packet rate average = 0.0465
	minimum = 0.036 (at node 6)
	maximum = 0.06 (at node 10)
Accepted packet rate average = 0.046875
	minimum = 0.034 (at node 7)
	maximum = 0.062 (at node 6)
Injected flit rate average = 0.0465
	minimum = 0.036 (at node 6)
	maximum = 0.06 (at node 10)
Accepted flit rate average= 0.046875
	minimum = 0.034 (at node 7)
	maximum = 0.062 (at node 6)
Injected packet length average = 1
Accepted packet length average = 1
Total in-flight flits = 16 (0 measured)
latency change    = 0.0166195
throughput change = 0.00133333
Warmed up ...Time used is 1500 cycles
Class 0:
Packet latency average = 19.5162
	minimum = 7
	maximum = 37
Network latency average = 19.5162
	minimum = 7
	maximum = 37
Slowest packet = 3586
Flit latency average = 19.6347
	minimum = 7
	maximum = 37
Slowest flit = 3586
Fragmentation average = 0
	minimum = 0
	maximum = 0
Injected packet rate average = 0.048625
	minimum = 0.034 (at node 0)
	maximum = 0.064 (at node 9)
Accepted packet rate average = 0.04825
	minimum = 0.038 (at node 9)
	maximum = 0.06 (at node 3)
Injected flit rate average = 0.048625
	minimum = 0.034 (at node 0)
	maximum = 0.064 (at node 9)
Accepted flit rate average= 0.04825
	minimum = 0.038 (at node 9)
	maximum = 0.06 (at node 3)
Injected packet length average = 1
Accepted packet length average = 1
Total in-flight flits = 19 (19 measured)
latency change    = 0.00636477
throughput change = 0.0284974
Class 0:
Packet latency average = 19.6285
	minimum = 7
	maximum = 37
Network latency average = 19.6285
	minimum = 7
	maximum = 37
Slowest packet = 3586
Flit latency average = 19.6852
	minimum = 7
	maximum = 37
Slowest flit = 3586
Fragmentation average = 0
	minimum = 0
	maximum = 0
Injected packet rate average = 0.048875
	minimum = 0.04 (at node 8)
	maximum = 0.058 (at node 15)
Accepted packet rate average = 0.0484375
	minimum = 0.04 (at node 4)
	maximum = 0.059 (at node 7)
Injected flit rate average = 0.048875
	minimum = 0.04 (at node 8)
	maximum = 0.058 (at node 15)
Accepted flit rate average= 0.0484375
	minimum = 0.04 (at node 4)
	maximum = 0.059 (at node 7)
Injected packet length average = 1
Accepted packet length average = 1
Total in-flight flits = 23 (23 measured)
latency change    = 0.00571834
throughput change = 0.00387097
Class 0:
Packet latency average = 19.7337
	minimum = 7
	maximum = 37
Network latency average = 19.7337
	minimum = 7
	maximum = 37
Slowest packet = 3586
Flit latency average = 19.7699
	minimum = 7
	maximum = 37
Slowest flit = 3586
Fragmentation average = 0
	minimum = 0
	maximum = 0
Injected packet rate average = 0.0488333
	minimum = 0.0393333 (at node 6)
	maximum = 0.0593333 (at node 15)
Accepted packet rate average = 0.0487083
	minimum = 0.0426667 (at node 0)
	maximum = 0.058 (at node 7)
Injected flit rate average = 0.0488333
	minimum = 0.0393333 (at node 6)
	maximum = 0.0593333 (at node 15)
Accepted flit rate average= 0.0487083
	minimum = 0.0426667 (at node 0)
	maximum = 0.058 (at node 7)
Injected packet length average = 1
Accepted packet length average = 1
Total in-flight flits = 19 (19 measured)
latency change    = 0.005335
throughput change = 0.00556031
Draining all recorded packets ...
Draining remaining packets ...
Time taken is 3067 cycles
Class 0:
Packet latency average = 19.5244
	minimum = 7
	maximum = 38
Network latency average = 19.5244
	minimum = 7
	maximum = 38
Slowest packet = 4860
Flit latency average = 19.5244
	minimum = 7
	maximum = 38
Slowest flit = 4860
Fragmentation average = 0
	minimum = 0
	maximum = 0
Injected packet rate average = 0.055625
	minimum = 0.04 (at node 8)
	maximum = 0.074 (at node 3)
Accepted packet rate average = 0.053875
	minimum = 0.036 (at node 6)
	maximum = 0.07 (at node 14)
Injected flit rate average = 0.055625
	minimum = 0.04 (at node 8)
	maximum = 0.074 (at node 3)
Accepted flit rate average= 0.053875
	minimum = 0.036 (at node 6)
	maximum = 0.07 (at node 14)
Injected packet length average = 1
Accepted packet length average = 1
Total in-flight flits = 14 (0 measured)
latency change    = 1
throughput change = 1
Class 0:
Packet latency average = 19.4171
	minimum = 7
	maximum = 38
Network latency average = 19.4171
	minimum = 7
	maximum = 38
Slowest packet = 4860
Flit latency average = 19.4171
	minimum = 7
	maximum = 38
Slowest flit = 4860
Fragmentation average = 0
	minimum = 0
	maximum = 0
Injected packet rate average = 0.051125
	minimum = 0.039 (at node 4)
	maximum = 0.064 (at node 13)
Accepted packet rate average = 0.0505
	minimum = 0.039 (at node 2)
	maximum = 0.061 (at node 7)
Injected flit rate average = 0.051125
	minimum = 0.039 (at node 4)
	maximum = 0.064 (at node 13)
Accepted flit rate average= 0.0505
	minimum = 0.039 (at node 2)
	maximum = 0.061 (at node 7)
Injected packet length average = 1
Accepted packet length average = 1
Total in-flight flits = 10 (0 measured)
latency change    = 0.00552517
throughput change = 0.0668317
Class 0:
Packet latency average = 18.9484
	minimum = 7
	maximum = 38
Network latency average = 18.9484
	minimum = 7
	maximum = 38
Slowest packet = 5603
Flit latency average = 18.9484
	minimum = 7
	maximum = 38
Slowest flit = 5603
Fragmentation average = 0
	minimum = 0
	maximum = 0
Injected packet rate average = 0.05175
	minimum = 0.036 (at node 12)
	maximum = 0.068 (at node 6)
Accepted packet rate average = 0.050875
	minimum = 0.026 (at node 13)
	maximum = 0.064 (at node 3)
Injected flit rate average = 0.05175
	minimum = 0.036 (at node 12)
	maximum = 0.068 (at node 6)
Accepted flit rate average= 0.050875
	minimum = 0.026 (at node 13)
	maximum = 0.064 (at node 3)
Injected packet length average = 1
Accepted packet length average = 1
Total in-flight flits = 17 (0 measured)
latency change    = 0.0247343
throughput change = 0.00737101
Warmed up ...Time used is 1500 cycles
Class 0:
Packet latency average = 19.9118
	minimum = 7
	maximum = 37
Network latency average = 19.9118
	minimum = 7
	maximum = 37
Slowest packet = 6029
Flit latency average = 19.9003
	minimum = 7
	maximum = 37
Slowest flit = 6029
Fragmentation average = 0
	minimum = 0
	maximum = 0
Injected packet rate average = 0.0485
	minimum = 0.036 (at node 10)
	maximum = 0.062 (at node 3)
Accepted packet rate average = 0.048875
	minimum = 0.036 (at node 3)
	maximum = 0.064 (at node 8)
Injected flit rate average = 0.0485
	minimum = 0.036 (at node 10)
	maximum = 0.062 (at node 3)
Accepted flit rate average= 0.048875
	minimum = 0.036 (at node 3)
	maximum = 0.064 (at node 8)
Injected packet length average = 1
Accepted packet length average = 1
Total in-flight flits = 14 (14 measured)
latency change    = 0.0483815
throughput change = 0.0409207
Class 0:
Packet latency average = 19.7908
	minimum = 7
	maximum = 37
Network latency average = 19.7908
	minimum = 7
	maximum = 37
Slowest packet = 6029
Flit latency average = 19.7877
	minimum = 7
	maximum = 37
Slowest flit = 6029
Fragmentation average = 0
	minimum = 0
	maximum = 0
Injected packet rate average = 0.049875
	minimum = 0.041 (at node 7)
	maximum = 0.059 (at node 4)
Accepted packet rate average = 0.04975
	minimum = 0.041 (at node 3)
	maximum = 0.063 (at node 8)
Injected flit rate average = 0.049875
	minimum = 0.041 (at node 7)
	maximum = 0.059 (at node 4)
Accepted flit rate average= 0.04975
	minimum = 0.041 (at node 3)
	maximum = 0.063 (at node 8)
Injected packet length average = 1
Accepted packet length average = 1
Total in-flight flits = 19 (19 measured)
latency change    = 0.00611434
throughput change = 0.0175879
Class 0:
Packet latency average = 19.6078
	minimum = 7
	maximum = 37
Network latency average = 19.6078
	minimum = 7
	maximum = 37
Slowest packet = 6029
Flit latency average = 19.6083
	minimum = 7
	maximum = 37
Slowest flit = 6029
Fragmentation average = 0
	minimum = 0
	maximum = 0
Injected packet rate average = 0.0506667
	minimum = 0.042 (at node 13)
	maximum = 0.0606667 (at node 6)
Accepted packet rate average = 0.0509583
	minimum = 0.046 (at node 4)
	maximum = 0.0633333 (at node 8)
Injected flit rate average = 0.0506667
	minimum = 0.042 (at node 13)
	maximum = 0.0606667 (at node 6)
Accepted flit rate average= 0.0509583
	minimum = 0.046 (at node 4)
	maximum = 0.0633333 (at node 8)
Injected packet length average = 1
Accepted packet length average = 1
Total in-flight flits = 10 (10 measured)
latency change    = 0.00933114
throughput change = 0.0237122
Draining all recorded packets ...
Draining remaining packets ...
Time taken is 3057 cycles
Class 0:
Packet latency average = 19.3549
	minimum = 7
	maximum = 37
Network latency average = 19.3549
	minimum = 7
	maximum = 37
Slowest packet = 7450
Flit latency average = 19.3549
	minimum = 7
	maximum = 37
Slowest flit = 7450
Fragmentation average = 0
	minimum = 0
	maximum = 0
Injected packet rate average = 0.047125
	minimum = 0.024 (at node 4)
	maximum = 0.064 (at node 15)
Accepted packet rate average = 0.044375
	minimum = 0.03 (at node 5)
	maximum = 0.06 (at node 11)
Injected flit rate average = 0.047125
	minimum = 0.024 (at node 4)
	maximum = 0.064 (at node 15)
Accepted flit rate average= 0.044375
	minimum = 0.03 (at node 5)
	maximum = 0.06 (at node 11)
Injected packet length average = 1
Accepted packet length average = 1
Total in-flight flits = 22 (0 measured)
latency change    = 1
throughput change = 1
Class 0:
Packet latency average = 19.4311
	minimum = 7
	maximum = 38
Network latency average = 19.4311
	minimum = 7
	maximum = 38
Slowest packet = 7842
Flit latency average = 19.4311
	minimum = 7
	maximum = 38
Slowest flit = 7842
Fragmentation average = 0
	minimum = 0
	maximum = 0
Injected packet rate average = 0.0469375
	minimum = 0.035 (at node 4)
	maximum = 0.057 (at node 10)
Accepted packet rate average = 0.0458125
	minimum = 0.033 (at node 5)
	maximum = 0.058 (at node 12)
Injected flit rate average = 0.0469375
	minimum = 0.035 (at node 4)
	maximum = 0.057 (at node 10)
Accepted flit rate average= 0.0458125
	minimum = 0.033 (at node 5)
	maximum = 0.058 (at node 12)
Injected packet length average = 1
Accepted packet length average = 1
Total in-flight flits = 18 (0 measured)
latency change    = 0.00392029
throughput change = 0.0313779
Class 0:
Packet latency average = 19.2049
	minimum = 7
	maximum = 37
Network latency average = 19.2049
	minimum = 7
	maximum = 37
Slowest packet = 8057
Flit latency average = 19.2049
	minimum = 7
	maximum = 37
Slowest flit = 8057
Fragmentation average = 0
	minimum = 0
	maximum = 0
Injected packet rate average = 0.0505
	minimum = 0.034 (at node 1)
	maximum = 0.07 (at node 11)
Accepted packet rate average = 0.05125
	minimum = 0.028 (at node 4)
	maximum = 0.078 (at node 0)
Injected flit rate average = 0.0505
	minimum = 0.034 (at node 1)
	maximum = 0.07 (at node 11)
Accepted flit rate average= 0.05125
	minimum = 0.028 (at node 4)
	maximum = 0.078 (at node 0)
Injected packet length average = 1
Accepted packet length average = 1
Total in-flight flits = 12 (0 measured)
latency change    = 0.0117797
throughput change = 0.106098
Warmed up ...Time used is 1500 cycles
Class 0:
Packet latency average = 18.6747
	minimum = 7
	maximum = 37
Network latency average = 18.6747
	minimum = 7
	maximum = 37
Slowest packet = 8444
Flit latency average = 18.7031
	minimum = 7
	maximum = 37
Slowest flit = 8444
Fragmentation average = 0
	minimum = 0
	maximum = 0
Injected packet rate average = 0.04825
	minimum = 0.038 (at node 2)
	maximum = 0.062 (at node 9)
Accepted packet rate average = 0.048
	minimum = 0.03 (at node 10)
	maximum = 0.07 (at node 2)
Injected flit rate average = 0.04825
	minimum = 0.038 (at node 2)
	maximum = 0.062 (at node 9)
Accepted flit rate average= 0.048
	minimum = 0.03 (at node 10)
	maximum = 0.07 (at node 2)
Injected packet length average = 1
Accepted packet length average = 1
Total in-flight flits = 14 (14 measured)
latency change    = 0.0283885
throughput change = 0.0677083
Class 0:
Packet latency average = 19.3121
	minimum = 7
	maximum = 38
Network latency average = 19.3121
	minimum = 7
	maximum = 38
Slowest packet = 9134
Flit latency average = 19.3161
	minimum = 7
	maximum = 38
Slowest flit = 9134
Fragmentation average = 0
	minimum = 0
	maximum = 0
Injected packet rate average = 0.051
	minimum = 0.039 (at node 3)
	maximum = 0.065 (at node 12)
Accepted packet rate average = 0.0508125
	minimum = 0.041 (at node 10)
	maximum = 0.06 (at node 0)
Injected flit rate average = 0.051
	minimum = 0.039 (at node 3)
	maximum = 0.065 (at node 12)
Accepted flit rate average= 0.0508125
	minimum = 0.041 (at node 10)
	maximum = 0.06 (at node 0)
Injected packet length average = 1
Accepted packet length average = 1
Total in-flight flits = 15 (15 measured)
latency change    = 0.0330041
throughput change = 0.0553506
Class 0:
Packet latency average = 19.5395
	minimum = 7
	maximum = 38
Network latency average = 19.5395
	minimum = 7
	maximum = 38
Slowest packet = 9134
Flit latency average = 19.5399
	minimum = 7
	maximum = 38
Slowest flit = 9134
Fragmentation average = 0
	minimum = 0
	maximum = 0
Injected packet rate average = 0.0506667
	minimum = 0.0393333 (at node 14)
	maximum = 0.0626667 (at node 0)
Accepted packet rate average = 0.050625
	minimum = 0.046 (at node 3)
	maximum = 0.056 (at node 2)
Injected flit rate average = 0.0506667
	minimum = 0.0393333 (at node 14)
	maximum = 0.0626667 (at node 0)
Accepted flit rate average= 0.050625
	minimum = 0.046 (at node 3)
	maximum = 0.056 (at node 2)
Injected packet length average = 1
Accepted packet length average = 1
Total in-flight flits = 13 (13 measured)
latency change    = 0.0116367
throughput change = 0.0037037
Class 0:
Packet latency average = 19.4994
	minimum = 7
	maximum = 38
Network latency average = 19.4994
	minimum = 7
	maximum = 38
Slowest packet = 9134
Flit latency average = 19.5
	minimum = 7
	maximum = 38
Slowest flit = 9134
Fragmentation average = 0
	minimum = 0
	maximum = 0
Injected packet rate average = 0.0512813
	minimum = 0.0405 (at node 14)
	maximum = 0.0605 (at node 0)
Accepted packet rate average = 0.0514375
	minimum = 0.0455 (at node 4)
	maximum = 0.0575 (at node 15)
Injected flit rate average = 0.0512813
	minimum = 0.0405 (at node 14)
	maximum = 0.0605 (at node 0)
Accepted flit rate average= 0.0514375
	minimum = 0.0455 (at node 4)
	maximum = 0.0575 (at node 15)
Injected packet length average = 1
Accepted packet length average = 1
Total in-flight flits = 7 (7 measured)
latency change    = 0.0020563
throughput change = 0.0157959
Class 0:
Packet latency average = 19.4027
	minimum = 7
	maximum = 38
Network latency average = 19.4027
	minimum = 7
	maximum = 38
Slowest packet = 9134
Flit latency average = 19.4038
	minimum = 7
	maximum = 38
Slowest flit = 9134
Fragmentation average = 0
	minimum = 0
	maximum = 0
Injected packet rate average = 0.051575
	minimum = 0.0416 (at node 14)
	maximum = 0.0584 (at node 0)
Accepted packet rate average = 0.051325
	minimum = 0.0456 (at node 8)
	maximum = 0.0552 (at node 5)
Injected flit rate average = 0.051575
	minimum = 0.0416 (at node 14)
	maximum = 0.0584 (at node 0)
Accepted flit rate average= 0.051325
	minimum = 0.0456 (at node 8)
	maximum = 0.0552 (at node 5)
Injected packet length average = 1
Accepted packet length average = 1
Total in-flight flits = 22 (22 measured)
latency change    = 0.00498096
throughput change = 0.00219191
Draining all recorded packets ...
Draining remaining packets ...
Time taken is 4055 cycles
Class 0:
Packet latency average = 19.5059
	minimum = 7
	maximum = 37
Network latency average = 19.5059
	minimum = 7
	maximum = 37
Slowest packet = 10578
Flit latency average = 19.5059
	minimum = 7
	maximum = 37
Slowest flit = 10578
Fragmentation average = 0
	minimum = 0
	maximum = 0
Injected packet rate average = 0.0555
	minimum = 0.036 (at node 4)
	maximum = 0.08 (at node 10)
Accepted packet rate average = 0.053375
	minimum = 0.04 (at node 0)
	maximum = 0.068 (at node 11)
Injected flit rate average = 0.0555
	minimum = 0.036 (at node 4)
	maximum = 0.08 (at node 10)
Accepted flit rate average= 0.053375
	minimum = 0.04 (at node 0)
	maximum = 0.068 (at node 11)
Injected packet length average = 1
Accepted packet length average = 1
Total in-flight flits = 17 (0 measured)
latency change    = 1
throughput change = 1
Class 0:
Packet latency average = 19.1757
	minimum = 7
	maximum = 37
Network latency average = 19.1757
	minimum = 7
	maximum = 37
Slowest packet = 10578
Flit latency average = 19.1757
	minimum = 7
	maximum = 37
Slowest flit = 10578
Fragmentation average = 0
	minimum = 0
	maximum = 0
Injected packet rate average = 0.0530625
	minimum = 0.039 (at node 8)
	maximum = 0.067 (at node 11)
Accepted packet rate average = 0.0519375
	minimum = 0.04 (at node 0)
	maximum = 0.064 (at node 8)
Injected flit rate average = 0.0530625
	minimum = 0.039 (at node 8)
	maximum = 0.067 (at node 11)
Accepted flit rate average= 0.0519375
	minimum = 0.04 (at node 0)
	maximum = 0.064 (at node 8)
Injected packet length average = 1
Accepted packet length average = 1
Total in-flight flits = 18 (0 measured)
latency change    = 0.0172178
throughput change = 0.0276775
Class 0:
Packet latency average = 19.4803
	minimum = 7
	maximum = 38
Network latency average = 19.4803
	minimum = 7
	maximum = 38
Slowest packet = 11357
Flit latency average = 19.4803
	minimum = 7
	maximum = 38
Slowest flit = 11357
Fragmentation average = 0
	minimum = 0
	maximum = 0
Injected packet rate average = 0.049875
	minimum = 0.034 (at node 12)
	maximum = 0.068 (at node 10)
Accepted packet rate average = 0.05075
	minimum = 0.022 (at node 4)
	maximum = 0.074 (at node 9)
Injected flit rate average = 0.049875
	minimum = 0.034 (at node 12)
	maximum = 0.068 (at node 10)
Accepted flit rate average= 0.05075
	minimum = 0.022 (at node 4)
	maximum = 0.074 (at node 9)
Injected packet length average = 1
Accepted packet length average = 1
Total in-flight flits = 11 (0 measured)
latency change    = 0.0156365
throughput change = 0.023399
Warmed up ...Time used is 1500 cycles
Class 0:
Packet latency average = 19.1931
	minimum = 7
	maximum = 38
Network latency average = 19.1931
	minimum = 7
	maximum = 38
Slowest packet = 12030
Flit latency average = 19.3753
	minimum = 7
	maximum = 38
Slowest flit = 12030
Fragmentation average = 0
	minimum = 0
	maximum = 0
Injected packet rate average = 0.049125
	minimum = 0.034 (at node 0)
	maximum = 0.062 (at node 2)
Accepted packet rate average = 0.048625
	minimum = 0.034 (at node 8)
	maximum = 0.066 (at node 0)
Injected flit rate average = 0.049125
	minimum = 0.034 (at node 0)
	maximum = 0.062 (at node 2)
Accepted flit rate average= 0.048625
	minimum = 0.034 (at node 8)
	maximum = 0.066 (at node 0)
Injected packet length average = 1
Accepted packet length average = 1
Total in-flight flits = 15 (15 measured)
latency change    = 0.0149623
throughput change = 0.0437018
Class 0:
Packet latency average = 19.2902
	minimum = 7
	maximum = 38
Network latency average = 19.2902
	minimum = 7
	maximum = 38
Slowest packet = 12030
Flit latency average = 19.3793
	minimum = 7
	maximum = 38
Slowest flit = 12030
Fragmentation average = 0
	minimum = 0
	maximum = 0
Injected packet rate average = 0.0491875
	minimum = 0.037 (at node 12)
	maximum = 0.062 (at node 15)
Accepted packet rate average = 0.0489375
	minimum = 0.038 (at node 8)
	maximum = 0.061 (at node 0)
Injected flit rate average = 0.0491875
	minimum = 0.037 (at node 12)
	maximum = 0.062 (at node 15)
Accepted flit rate average= 0.0489375
	minimum = 0.038 (at node 8)
	maximum = 0.061 (at node 0)
Injected packet length average = 1
Accepted packet length average = 1
Total in-flight flits = 15 (15 measured)
latency change    = 0.00503022
throughput change = 0.0063857
Class 0:
Packet latency average = 19.3328
	minimum = 7
	maximum = 38
Network latency average = 19.3328
	minimum = 7
	maximum = 38
Slowest packet = 12030
Flit latency average = 19.3914
	minimum = 7
	maximum = 38
Slowest flit = 12030
Fragmentation average = 0
	minimum = 0
	maximum = 0
Injected packet rate average = 0.0495417
	minimum = 0.0373333 (at node 0)
	maximum = 0.06 (at node 15)
Accepted packet rate average = 0.0492917
	minimum = 0.0393333 (at node 4)
	maximum = 0.062 (at node 0)
Injected flit rate average = 0.0495417
	minimum = 0.0373333 (at node 0)
	maximum = 0.06 (at node 15)
Accepted flit rate average= 0.0492917
	minimum = 0.0393333 (at node 4)
	maximum = 0.062 (at node 0)
Injected packet length average = 1
Accepted packet length average = 1
Total in-flight flits = 17 (17 measured)
latency change    = 0.00220398
throughput change = 0.00718512
Draining all recorded packets ...
Draining remaining packets ...
Time taken is 3037 cycles
Class 0:
Packet latency average = 18.663
	minimum = 7
	maximum = 37
Network latency average = 18.663
	minimum = 7
	maximum = 37
Slowest packet = 12948
Flit latency average = 18.663
	minimum = 7
	maximum = 37
Slowest flit = 12948
Fragmentation average = 0
	minimum = 0
	maximum = 0
Injected packet rate average = 0.047375
	minimum = 0.028 (at node 13)
	maximum = 0.064 (at node 5)
Accepted packet rate average = 0.046
	minimum = 0.03 (at node 15)
	maximum = 0.062 (at node 6)
Injected flit rate average = 0.047375
	minimum = 0.028 (at node 13)
	maximum = 0.064 (at node 5)
Accepted flit rate average= 0.046
	minimum = 0.03 (at node 15)
	maximum = 0.062 (at node 6)
Injected packet length average = 1
Accepted packet length average = 1
Total in-flight flits = 11 (0 measured)
latency change    = 1
throughput change = 1
Class 0:
Packet latency average = 18.969
	minimum = 7
	maximum = 38
Network latency average = 18.969
	minimum = 7
	maximum = 38
Slowest packet = 13593
Flit latency average = 18.969
	minimum = 7
	maximum = 38
Slowest flit = 13593
Fragmentation average = 0
	minimum = 0
	maximum = 0
Injected packet rate average = 0.049625
	minimum = 0.042 (at node 7)
	maximum = 0.058 (at node 3)
Accepted packet rate average = 0.048375
	minimum = 0.036 (at node 2)
	maximum = 0.06 (at node 6)
Injected flit rate average = 0.049625
	minimum = 0.042 (at node 7)
	maximum = 0.058 (at node 3)
Accepted flit rate average= 0.048375
	minimum = 0.036 (at node 2)
	maximum = 0.06 (at node 6)
Injected packet length average = 1
Accepted packet length average = 1
Total in-flight flits = 20 (0 measured)
latency change    = 0.0161289
throughput change = 0.0490956
Class 0:
Packet latency average = 19.5322
	minimum = 7
	maximum = 38
Network latency average = 19.5322
	minimum = 7
	maximum = 38
Slowest packet = 13782
Flit latency average = 19.5322
	minimum = 7
	maximum = 38
Slowest flit = 13782
Fragmentation average = 0
	minimum = 0
	maximum = 0
Injected packet rate average = 0.044375
	minimum = 0.032 (at node 13)
	maximum = 0.064 (at node 12)
Accepted packet rate average = 0.044625
	minimum = 0.028 (at node 0)
	maximum = 0.062 (at node 15)
Injected flit rate average = 0.044375
	minimum = 0.032 (at node 13)
	maximum = 0.064 (at node 12)
Accepted flit rate average= 0.044625
	minimum = 0.028 (at node 0)
	maximum = 0.062 (at node 15)
Injected packet length average = 1
Accepted packet length average = 1
Total in-flight flits = 18 (0 measured)
latency change    = 0.0288355
throughput change = 0.0840336
Warmed up ...Time used is 1500 cycles
Class 0:
Packet latency average = 19.7013
	minimum = 7
	maximum = 37
Network latency average = 19.7013
	minimum = 7
	maximum = 37
Slowest packet = 14116
Flit latency average = 19.7916
	minimum = 7
	maximum = 37
Slowest flit = 14116
Fragmentation average = 0
	minimum = 0
	maximum = 0
Injected packet rate average = 0.049625
	minimum = 0.03 (at node 10)
	maximum = 0.078 (at node 14)
Accepted packet rate average = 0.050375
	minimum = 0.028 (at node 14)
	maximum = 0.084 (at node 13)
Injected flit rate average = 0.049625
	minimum = 0.03 (at node 10)
	maximum = 0.078 (at node 14)
Accepted flit rate average= 0.050375
	minimum = 0.028 (at node 14)
	maximum = 0.084 (at node 13)
Injected packet length average = 1
Accepted packet length average = 1
Total in-flight flits = 12 (12 measured)
latency change    = 0.00858247
throughput change = 0.114144
Class 0:
Packet latency average = 19.4604
	minimum = 7
	maximum = 37
Network latency average = 19.4604
	minimum = 7
	maximum = 37
Slowest packet = 14116
Flit latency average = 19.5097
	minimum = 7
	maximum = 37
Slowest flit = 14116
Fragmentation average = 0
	minimum = 0
	maximum = 0
Injected packet rate average = 0.0513125
	minimum = 0.039 (at node 10)
	maximum = 0.063 (at node 12)
Accepted packet rate average = 0.051625
	minimum = 0.037 (at node 14)
	maximum = 0.071 (at node 13)
Injected flit rate average = 0.0513125
	minimum = 0.039 (at node 10)
	maximum = 0.063 (at node 12)
Accepted flit rate average= 0.051625
	minimum = 0.037 (at node 14)
	maximum = 0.071 (at node 13)
Injected packet length average = 1
Accepted packet length average = 1
Total in-flight flits = 13 (13 measured)
latency change    = 0.0123791
throughput change = 0.0242131
Class 0:
Packet latency average = 19.698
	minimum = 7
	maximum = 37
Network latency average = 19.698
	minimum = 7
	maximum = 37
Slowest packet = 14116
Flit latency average = 19.7274
	minimum = 7
	maximum = 37
Slowest flit = 14116
Fragmentation average = 0
	minimum = 0
	maximum = 0
Injected packet rate average = 0.051375
	minimum = 0.0426667 (at node 5)
	maximum = 0.0593333 (at node 4)
Accepted packet rate average = 0.0516667
	minimum = 0.0393333 (at node 6)
	maximum = 0.0626667 (at node 13)
Injected flit rate average = 0.051375
	minimum = 0.0426667 (at node 5)
	maximum = 0.0593333 (at node 4)
Accepted flit rate average= 0.0516667
	minimum = 0.0393333 (at node 6)
	maximum = 0.0626667 (at node 13)
Injected packet length average = 1
Accepted packet length average = 1
Total in-flight flits = 11 (11 measured)
latency change    = 0.0120641
throughput change = 0.000806452
Class 0:
Packet latency average = 19.5638
	minimum = 7
	maximum = 37
Network latency average = 19.5638
	minimum = 7
	maximum = 37
Slowest packet = 14116
Flit latency average = 19.5876
	minimum = 7
	maximum = 37
Slowest flit = 14116
Fragmentation average = 0
	minimum = 0
	maximum = 0
Injected packet rate average = 0.05125
	minimum = 0.0415 (at node 5)
	maximum = 0.06 (at node 7)
Accepted packet rate average = 0.0512188
	minimum = 0.041 (at node 6)
	maximum = 0.061 (at node 13)
Injected flit rate average = 0.05125
	minimum = 0.0415 (at node 5)
	maximum = 0.06 (at node 7)
Accepted flit rate average= 0.0512188
	minimum = 0.041 (at node 6)
	maximum = 0.061 (at node 13)
Injected packet length average = 1
Accepted packet length average = 1
Total in-flight flits = 19 (19 measured)
latency change    = 0.0068589
throughput change = 0.00874517
Draining all recorded packets ...
Draining remaining packets ...
Time taken is 3555 cycles
Class 0:
Packet latency average = 19.6446
	minimum = 7
	maximum = 37
Network latency average = 19.6446
	minimum = 7
	maximum = 37
Slowest packet = 15800
Flit latency average = 19.6446
	minimum = 7
	maximum = 37
Slowest flit = 15800
Fragmentation average = 0
	minimum = 0
	maximum = 0
Injected packet rate average = 0.048
	minimum = 0.036 (at node 11)
	maximum = 0.062 (at node 1)
Accepted packet rate average = 0.047125
	minimum = 0.034 (at node 0)
	maximum = 0.06 (at node 4)
Injected flit rate average = 0.048
	minimum = 0.036 (at node 11)
	maximum = 0.062 (at node 1)
Accepted flit rate average= 0.047125
	minimum = 0.034 (at node 0)
	maximum = 0.06 (at node 4)
Injected packet length average = 1
Accepted packet length average = 1
Total in-flight flits = 7 (0 measured)
latency change    = 1
throughput change = 1
Class 0:
Packet latency average = 19.6245
	minimum = 7
	maximum = 37
Network latency average = 19.6245
	minimum = 7
	maximum = 37
Slowest packet = 15800
Flit latency average = 19.6245
	minimum = 7
	maximum = 37
Slowest flit = 15800
Fragmentation average = 0
	minimum = 0
	maximum = 0
Injected packet rate average = 0.0515
	minimum = 0.042 (at node 15)
	maximum = 0.06 (at node 1)
Accepted packet rate average = 0.0504375
	minimum = 0.037 (at node 10)
	maximum = 0.065 (at node 6)
Injected flit rate average = 0.0515
	minimum = 0.042 (at node 15)
	maximum = 0.06 (at node 1)
Accepted flit rate average= 0.0504375
	minimum = 0.037 (at node 10)
	maximum = 0.065 (at node 6)
Injected packet length average = 1
Accepted packet length average = 1
Total in-flight flits = 17 (0 measured)
latency change    = 0.00102051
throughput change = 0.0656753
Class 0:
Packet latency average = 19.7743
	minimum = 7
	maximum = 37
Network latency average = 19.7743
	minimum = 7
	maximum = 37
Slowest packet = 16656
Flit latency average = 19.7743
	minimum = 7
	maximum = 37
Slowest flit = 16656
Fragmentation average = 0
	minimum = 0
	maximum = 0
Injected packet rate average = 0.05175
	minimum = 0.028 (at node 5)
	maximum = 0.074 (at node 9)
Accepted packet rate average = 0.052625
	minimum = 0.036 (at node 4)
	maximum = 0.07 (at node 12)
Injected flit rate average = 0.05175
	minimum = 0.028 (at node 5)
	maximum = 0.074 (at node 9)
Accepted flit rate average= 0.052625
	minimum = 0.036 (at node 4)
	maximum = 0.07 (at node 12)
Injected packet length average = 1
Accepted packet length average = 1
Total in-flight flits = 10 (0 measured)
latency change    = 0.00757605
throughput change = 0.0415677
Warmed up ...Time used is 1500 cycles
Class 0:
Packet latency average = 19.8589
	minimum = 7
	maximum = 38
Network latency average = 19.8589
	minimum = 7
	maximum = 38
Slowest packet = 17307
Flit latency average = 19.8986
	minimum = 7
	maximum = 38
Slowest flit = 17307
Fragmentation average = 0
	minimum = 0
	maximum = 0
Injected packet rate average = 0.052625
	minimum = 0.034 (at node 14)
	maximum = 0.066 (at node 5)
Accepted packet rate average = 0.05175
	minimum = 0.04 (at node 9)
	maximum = 0.066 (at node 8)
Injected flit rate average = 0.052625
	minimum = 0.034 (at node 14)
	maximum = 0.066 (at node 5)
Accepted flit rate average= 0.05175
	minimum = 0.04 (at node 9)
	maximum = 0.066 (at node 8)
Injected packet length average = 1
Accepted packet length average = 1
Total in-flight flits = 17 (17 measured)
latency change    = 0.00425824
throughput change = 0.0169082
Class 0:
Packet latency average = 19.3598
	minimum = 7
	maximum = 38
Network latency average = 19.3598
	minimum = 7
	maximum = 38
Slowest packet = 17307
Flit latency average = 19.386
	minimum = 7
	maximum = 38
Slowest flit = 17307
Fragmentation average = 0
	minimum = 0
	maximum = 0
Injected packet rate average = 0.051375
	minimum = 0.039 (at node 11)
	maximum = 0.064 (at node 13)
Accepted packet rate average = 0.051
	minimum = 0.038 (at node 9)
	maximum = 0.063 (at node 4)
Injected flit rate average = 0.051375
	minimum = 0.039 (at node 11)
	maximum = 0.064 (at node 13)
Accepted flit rate average= 0.051
	minimum = 0.038 (at node 9)
	maximum = 0.063 (at node 4)
Injected packet length average = 1
Accepted packet length average = 1
Total in-flight flits = 16 (16 measured)
latency change    = 0.0257807
throughput change = 0.0147059
Class 0:
Packet latency average = 19.6178
	minimum = 7
	maximum = 38
Network latency average = 19.6178
	minimum = 7
	maximum = 38
Slowest packet = 17307
Flit latency average = 19.6331
	minimum = 7
	maximum = 38
Slowest flit = 17307
Fragmentation average = 0
	minimum = 0
	maximum = 0
Injected packet rate average = 0.0514583
	minimum = 0.0433333 (at node 15)
	maximum = 0.06 (at node 0)
Accepted packet rate average = 0.0513333
	minimum = 0.0426667 (at node 9)
	maximum = 0.0573333 (at node 3)
Injected flit rate average = 0.0514583
	minimum = 0.0433333 (at node 15)
	maximum = 0.06 (at node 0)
Accepted flit rate average= 0.0513333
	minimum = 0.0426667 (at node 9)
	maximum = 0.0573333 (at node 3)
Injected packet length average = 1
Accepted packet length average = 1
Total in-flight flits = 13 (13 measured)
latency change    = 0.0131532
throughput change = 0.00649351
Draining all recorded packets ...
Draining remaining packets ...
Time taken is 3050 cycles
Class 0:
Packet latency average = 19.6164
	minimum = 7
	maximum = 37
Network latency average = 19.6164
	minimum = 7
	maximum = 37
Slowest packet = 18256
Flit latency average = 19.6164
	minimum = 7
	maximum = 37
Slowest flit = 18256
Fragmentation average = 0
	minimum = 0
	maximum = 0
Injected packet rate average = 0.04925
	minimum = 0.038 (at node 12)
	maximum = 0.062 (at node 7)
Accepted packet rate average = 0.04725
	minimum = 0.032 (at node 2)
	maximum = 0.062 (at node 11)
Injected flit rate average = 0.04925
	minimum = 0.038 (at node 12)
	maximum = 0.062 (at node 7)
Accepted flit rate average= 0.04725
	minimum = 0.032 (at node 2)
	maximum = 0.062 (at node 11)
Injected packet length average = 1
Accepted packet length average = 1
Total in-flight flits = 16 (0 measured)
latency change    = 1
throughput change = 1
Class 0:
Packet latency average = 19.7581
	minimum = 7
	maximum = 38
Network latency average = 19.7581
	minimum = 7
	maximum = 38
Slowest packet = 18629
Flit latency average = 19.7581
	minimum = 7
	maximum = 38
Slowest flit = 18629
Fragmentation average = 0
	minimum = 0
	maximum = 0
Injected packet rate average = 0.047125
	minimum = 0.037 (at node 1)
	maximum = 0.057 (at node 10)
Accepted packet rate average = 0.04625
	minimum = 0.033 (at node 2)
	maximum = 0.068 (at node 11)
Injected flit rate average = 0.047125
	minimum = 0.037 (at node 1)
	maximum = 0.057 (at node 10)
Accepted flit rate average= 0.04625
	minimum = 0.033 (at node 2)
	maximum = 0.068 (at node 11)
Injected packet length average = 1
Accepted packet length average = 1
Total in-flight flits = 14 (0 measured)
latency change    = 0.00717204
throughput change = 0.0216216
Class 0:
Packet latency average = 19.2746
	minimum = 7
	maximum = 37
Network latency average = 19.2746
	minimum = 7
	maximum = 37
Slowest packet = 18991
Flit latency average = 19.2746
	minimum = 7
	maximum = 37
Slowest flit = 18991
Fragmentation average = 0
	minimum = 0
	maximum = 0
Injected packet rate average = 0.0515
	minimum = 0.036 (at node 11)
	maximum = 0.064 (at node 3)
Accepted packet rate average = 0.049625
	minimum = 0.032 (at node 0)
	maximum = 0.064 (at node 4)
Injected flit rate average = 0.0515
	minimum = 0.036 (at node 11)
	maximum = 0.064 (at node 3)
Accepted flit rate average= 0.049625
	minimum = 0.032 (at node 0)
	maximum = 0.064 (at node 4)
Injected packet length average = 1
Accepted packet length average = 1
Total in-flight flits = 29 (0 measured)
latency change    = 0.0250874
throughput change = 0.0680101
Warmed up ...Time used is 1500 cycles
Class 0:
Packet latency average = 18.6598
	minimum = 7
	maximum = 37
Network latency average = 18.6598
	minimum = 7
	maximum = 37
Slowest packet = 19404
Flit latency average = 18.8
	minimum = 7
	maximum = 37
Slowest flit = 19404
Fragmentation average = 0
	minimum = 0
	maximum = 0
Injected packet rate average = 0.0515
	minimum = 0.038 (at node 6)
	maximum = 0.066 (at node 11)
Accepted packet rate average = 0.0525
	minimum = 0.034 (at node 11)
	maximum = 0.066 (at node 7)
Injected flit rate average = 0.0515
	minimum = 0.038 (at node 6)
	maximum = 0.066 (at node 11)
Accepted flit rate average= 0.0525
	minimum = 0.034 (at node 11)
	maximum = 0.066 (at node 7)
Injected packet length average = 1
Accepted packet length average = 1
Total in-flight flits = 21 (21 measured)
latency change    = 0.0329431
throughput change = 0.0547619
Class 0:
Packet latency average = 19.0125
	minimum = 7
	maximum = 37
Network latency average = 19.0125
	minimum = 7
	maximum = 37
Slowest packet = 19404
Flit latency average = 19.0713
	minimum = 7
	maximum = 37
Slowest flit = 19404
Fragmentation average = 0
	minimum = 0
	maximum = 0
Injected packet rate average = 0.051
	minimum = 0.033 (at node 15)
	maximum = 0.064 (at node 11)
Accepted packet rate average = 0.05175
	minimum = 0.04 (at node 11)
	maximum = 0.066 (at node 4)
Injected flit rate average = 0.051
	minimum = 0.033 (at node 15)
	maximum = 0.064 (at node 11)
Accepted flit rate average= 0.05175
	minimum = 0.04 (at node 11)
	maximum = 0.066 (at node 4)
Injected packet length average = 1
Accepted packet length average = 1
Total in-flight flits = 17 (17 measured)
latency change    = 0.0185493
throughput change = 0.0144928
Class 0:
Packet latency average = 19.1055
	minimum = 7
	maximum = 37
Network latency average = 19.1055
	minimum = 7
	maximum = 37
Slowest packet = 19404
Flit latency average = 19.1437
	minimum = 7
	maximum = 37
Slowest flit = 19404
Fragmentation average = 0
	minimum = 0
	maximum = 0
Injected packet rate average = 0.0494583
	minimum = 0.0346667 (at node 15)
	maximum = 0.0646667 (at node 11)
Accepted packet rate average = 0.0501667
	minimum = 0.0426667 (at node 2)
	maximum = 0.0626667 (at node 4)
Injected flit rate average = 0.0494583
	minimum = 0.0346667 (at node 15)
	maximum = 0.0646667 (at node 11)
Accepted flit rate average= 0.0501667
	minimum = 0.0426667 (at node 2)
	maximum = 0.0626667 (at node 4)
Injected packet length average = 1
Accepted packet length average = 1
Total in-flight flits = 12 (12 measured)
latency change    = 0.00486855
throughput change = 0.0315615
Class 0:
Packet latency average = 19.154
	minimum = 7
	maximum = 38
Network latency average = 19.154
	minimum = 7
	maximum = 38
Slowest packet = 20871
Flit latency average = 19.1822
	minimum = 7
	maximum = 38
Slowest flit = 20871
Fragmentation average = 0
	minimum = 0
	maximum = 0
Injected packet rate average = 0.0487187
	minimum = 0.0335 (at node 15)
	maximum = 0.0605 (at node 7)
Accepted packet rate average = 0.0494062
	minimum = 0.042 (at node 12)
	maximum = 0.059 (at node 4)
Injected flit rate average = 0.0487187
	minimum = 0.0335 (at node 15)
	maximum = 0.0605 (at node 7)
Accepted flit rate average= 0.0494062
	minimum = 0.042 (at node 12)
	maximum = 0.059 (at node 4)
Injected packet length average = 1
Accepted packet length average = 1
Total in-flight flits = 7 (7 measured)
latency change    = 0.00253017
throughput change = 0.0153911
Draining all recorded packets ...
Draining remaining packets ...
Time taken is 3559 cycles
Class 0:
Packet latency average = 19.7008
	minimum = 7
	maximum = 38
Network latency average = 19.7008
	minimum = 7
	maximum = 38
Slowest packet = 21178
Flit latency average = 19.7008
	minimum = 7
	maximum = 38
Slowest flit = 21178
Fragmentation average = 0
	minimum = 0
	maximum = 0
Injected packet rate average = 0.048875
	minimum = 0.028 (at node 6)
	maximum = 0.072 (at node 7)
Accepted packet rate average = 0.047625
	minimum = 0.028 (at node 11)
	maximum = 0.062 (at node 2)
Injected flit rate average = 0.048875
	minimum = 0.028 (at node 6)
	maximum = 0.072 (at node 7)
Accepted flit rate average= 0.047625
	minimum = 0.028 (at node 11)
	maximum = 0.062 (at node 2)
Injected packet length average = 1
Accepted packet length average = 1
Total in-flight flits = 10 (0 measured)
latency change    = 1
throughput change = 1
Class 0:
Packet latency average = 19.9203
	minimum = 7
	maximum = 38
Network latency average = 19.9203
	minimum = 7
	maximum = 38
Slowest packet = 21178
Flit latency average = 19.9203
	minimum = 7
	maximum = 38
Slowest flit = 21178
Fragmentation average = 0
	minimum = 0
	maximum = 0
Injected packet rate average = 0.0488125
	minimum = 0.035 (at node 5)
	maximum = 0.06 (at node 15)
Accepted packet rate average = 0.0478125
	minimum = 0.035 (at node 0)
	maximum = 0.059 (at node 4)
Injected flit rate average = 0.0488125
	minimum = 0.035 (at node 5)
	maximum = 0.06 (at node 15)
Accepted flit rate average= 0.0478125
	minimum = 0.035 (at node 0)
	maximum = 0.059 (at node 4)
Injected packet length average = 1
Accepted packet length average = 1
Total in-flight flits = 16 (0 measured)
latency change    = 0.0110176
throughput change = 0.00392157
Class 0:
Packet latency average = 19.201
	minimum = 7
	maximum = 37
Network latency average = 19.201
	minimum = 7
	maximum = 37
Slowest packet = 21862
Flit latency average = 19.201
	minimum = 7
	maximum = 37
Slowest flit = 21862
Fragmentation average = 0
	minimum = 0
	maximum = 0
Injected packet rate average = 0.049875
	minimum = 0.036 (at node 7)
	maximum = 0.062 (at node 5)
Accepted packet rate average = 0.04975
	minimum = 0.034 (at node 15)
	maximum = 0.066 (at node 3)
Injected flit rate average = 0.049875
	minimum = 0.036 (at node 7)
	maximum = 0.062 (at node 5)
Accepted flit rate average= 0.04975
	minimum = 0.034 (at node 15)
	maximum = 0.066 (at node 3)
Injected packet length average = 1
Accepted packet length average = 1
Total in-flight flits = 17 (0 measured)
latency change    = 0.0374593
throughput change = 0.0389447
Warmed up ...Time used is 1500 cycles
Class 0:
Packet latency average = 19.5278
	minimum = 7
	maximum = 37
Network latency average = 19.5278
	minimum = 7
	maximum = 37
Slowest packet = 22219
Flit latency average = 19.6817
	minimum = 7
	maximum = 37
Slowest flit = 22140
Fragmentation average = 0
	minimum = 0
	maximum = 0
Injected packet rate average = 0.047875
	minimum = 0.032 (at node 6)
	maximum = 0.066 (at node 9)
Accepted packet rate average = 0.047125
	minimum = 0.034 (at node 5)
	maximum = 0.064 (at node 8)
Injected flit rate average = 0.047875
	minimum = 0.032 (at node 6)
	maximum = 0.066 (at node 9)
Accepted flit rate average= 0.047125
	minimum = 0.034 (at node 5)
	maximum = 0.064 (at node 8)
Injected packet length average = 1
Accepted packet length average = 1
Total in-flight flits = 23 (23 measured)
latency change    = 0.0167337
throughput change = 0.0557029
Class 0:
Packet latency average = 19.0949
	minimum = 7
	maximum = 37
Network latency average = 19.0949
	minimum = 7
	maximum = 37
Slowest packet = 22219
Flit latency average = 19.1769
	minimum = 7
	maximum = 37
Slowest flit = 22140
Fragmentation average = 0
	minimum = 0
	maximum = 0
Injected packet rate average = 0.05
	minimum = 0.034 (at node 2)
	maximum = 0.06 (at node 9)
Accepted packet rate average = 0.0498125
	minimum = 0.037 (at node 12)
	maximum = 0.065 (at node 9)
Injected flit rate average = 0.05
	minimum = 0.034 (at node 2)
	maximum = 0.06 (at node 9)
Accepted flit rate average= 0.0498125
	minimum = 0.037 (at node 12)
	maximum = 0.065 (at node 9)
Injected packet length average = 1
Accepted packet length average = 1
Total in-flight flits = 20 (20 measured)
latency change    = 0.0226713
throughput change = 0.0539523
Class 0:
Packet latency average = 19.1076
	minimum = 7
	maximum = 38
Network latency average = 19.1076
	minimum = 7
	maximum = 38
Slowest packet = 23279
Flit latency average = 19.1634
	minimum = 7
	maximum = 38
Slowest flit = 23279
Fragmentation average = 0
	minimum = 0
	maximum = 0
Injected packet rate average = 0.0487083
	minimum = 0.032 (at node 2)
	maximum = 0.0606667 (at node 9)
Accepted packet rate average = 0.0487083
	minimum = 0.034 (at node 12)
	maximum = 0.064 (at node 9)
Injected flit rate average = 0.0487083
	minimum = 0.032 (at node 2)
	maximum = 0.0606667 (at node 9)
Accepted flit rate average= 0.0487083
	minimum = 0.034 (at node 12)
	maximum = 0.064 (at node 9)
Injected packet length average = 1
Accepted packet length average = 1
Total in-flight flits = 17 (17 measured)
latency change    = 0.000668167
throughput change = 0.0226689
Class 0:
Packet latency average = 19.2177
	minimum = 7
	maximum = 38
Network latency average = 19.2177
	minimum = 7
	maximum = 38
Slowest packet = 23279
Flit latency average = 19.2578
	minimum = 7
	maximum = 38
Slowest flit = 23279
Fragmentation average = 0
	minimum = 0
	maximum = 0
Injected packet rate average = 0.0495
	minimum = 0.0405 (at node 2)
	maximum = 0.0575 (at node 9)
Accepted packet rate average = 0.0493437
	minimum = 0.04 (at node 12)
	maximum = 0.0625 (at node 9)
Injected flit rate average = 0.0495
	minimum = 0.0405 (at node 2)
	maximum = 0.0575 (at node 9)
Accepted flit rate average= 0.0493437
	minimum = 0.04 (at node 12)
	maximum = 0.0625 (at node 9)
Injected packet length average = 1
Accepted packet length average = 1
Total in-flight flits = 22 (22 measured)
latency change    = 0.0057255
throughput change = 0.0128773
Class 0:
Packet latency average = 19.3231
	minimum = 7
	maximum = 38
Network latency average = 19.3231
	minimum = 7
	maximum = 38
Slowest packet = 23279
Flit latency average = 19.3548
	minimum = 7
	maximum = 38
Slowest flit = 23279
Fragmentation average = 0
	minimum = 0
	maximum = 0
Injected packet rate average = 0.0486
	minimum = 0.04 (at node 2)
	maximum = 0.0552 (at node 1)
Accepted packet rate average = 0.04855
	minimum = 0.0416 (at node 5)
	maximum = 0.0596 (at node 9)
Injected flit rate average = 0.0486
	minimum = 0.04 (at node 2)
	maximum = 0.0552 (at node 1)
Accepted flit rate average= 0.04855
	minimum = 0.0416 (at node 5)
	maximum = 0.0596 (at node 9)
Injected packet length average = 1
Accepted packet length average = 1
Total in-flight flits = 19 (19 measured)
latency change    = 0.00545705
throughput change = 0.0163491
Draining all recorded packets ...
Draining remaining packets ...
Time taken is 4051 cycles
Class 0:
Packet latency average = 20.4574
	minimum = 7
	maximum = 37
Network latency average = 20.4574
	minimum = 7
	maximum = 37
Slowest packet = 24136
Flit latency average = 20.4574
	minimum = 7
	maximum = 37
Slowest flit = 24136
Fragmentation average = 0
	minimum = 0
	maximum = 0
Injected packet rate average = 0.05075
	minimum = 0.038 (at node 1)
	maximum = 0.068 (at node 15)
Accepted packet rate average = 0.048375
	minimum = 0.03 (at node 6)
	maximum = 0.07 (at node 8)
Injected flit rate average = 0.05075
	minimum = 0.038 (at node 1)
	maximum = 0.068 (at node 15)
Accepted flit rate average= 0.048375
	minimum = 0.03 (at node 6)
	maximum = 0.07 (at node 8)
Injected packet length average = 1
Accepted packet length average = 1
Total in-flight flits = 19 (0 measured)
latency change    = 1
throughput change = 1
Class 0:
Packet latency average = 19.931
	minimum = 7
	maximum = 37
Network latency average = 19.931
	minimum = 7
	maximum = 37
Slowest packet = 24136
Flit latency average = 19.931
	minimum = 7
	maximum = 37
Slowest flit = 24136
Fragmentation average = 0
	minimum = 0
	maximum = 0
Injected packet rate average = 0.0513125
	minimum = 0.041 (at node 6)
	maximum = 0.065 (at node 14)
Accepted packet rate average = 0.0498125
	minimum = 0.036 (at node 5)
	maximum = 0.061 (at node 10)
Injected flit rate average = 0.0513125
	minimum = 0.041 (at node 6)
	maximum = 0.065 (at node 14)
Accepted flit rate average= 0.0498125
	minimum = 0.036 (at node 5)
	maximum = 0.061 (at node 10)
Injected packet length average = 1
Accepted packet length average = 1
Total in-flight flits = 24 (0 measured)
latency change    = 0.0264098
throughput change = 0.0288582
Class 0:
Packet latency average = 19.182
	minimum = 7
	maximum = 37
Network latency average = 19.182
	minimum = 7
	maximum = 37
Slowest packet = 24904
Flit latency average = 19.182
	minimum = 7
	maximum = 37
Slowest flit = 24904
Fragmentation average = 0
	minimum = 0
	maximum = 0
Injected packet rate average = 0.0505
	minimum = 0.038 (at node 5)
	maximum = 0.066 (at node 9)
Accepted packet rate average = 0.0515
	minimum = 0.034 (at node 11)
	maximum = 0.064 (at node 6)
Injected flit rate average = 0.0505
	minimum = 0.038 (at node 5)
	maximum = 0.066 (at node 9)
Accepted flit rate average= 0.0515
	minimum = 0.034 (at node 11)
	maximum = 0.064 (at node 6)
Injected packet length average = 1
Accepted packet length average = 1
Total in-flight flits = 16 (0 measured)
latency change    = 0.0390445
throughput change = 0.032767
Warmed up ...Time used is 1500 cycles
Class 0:
Packet latency average = 19.5783
	minimum = 7
	maximum = 38
Network latency average = 19.5783
	minimum = 7
	maximum = 38
Slowest packet = 25364
Flit latency average = 19.7039
	minimum = 7
	maximum = 38
Slowest flit = 25323
Fragmentation average = 0
	minimum = 0
	maximum = 0
Injected packet rate average = 0.051125
	minimum = 0.04 (at node 0)
	maximum = 0.07 (at node 6)
Accepted packet rate average = 0.0515
	minimum = 0.038 (at node 7)
	maximum = 0.06 (at node 10)
Injected flit rate average = 0.051125
	minimum = 0.04 (at node 0)
	maximum = 0.07 (at node 6)
Accepted flit rate average= 0.0515
	minimum = 0.038 (at node 7)
	maximum = 0.06 (at node 10)
Injected packet length average = 1
Accepted packet length average = 1
Total in-flight flits = 13 (13 measured)
latency change    = 0.020239
throughput change = 0
Class 0:
Packet latency average = 19.3626
	minimum = 7
	maximum = 38
Network latency average = 19.3626
	minimum = 7
	maximum = 38
Slowest packet = 25364
Flit latency average = 19.4296
	minimum = 7
	maximum = 38
Slowest flit = 25323
Fragmentation average = 0
	minimum = 0
	maximum = 0
Injected packet rate average = 0.051375
	minimum = 0.039 (at node 12)
	maximum = 0.06 (at node 14)
Accepted packet rate average = 0.0515
	minimum = 0.042 (at node 14)
	maximum = 0.062 (at node 3)
Injected flit rate average = 0.051375
	minimum = 0.039 (at node 12)
	maximum = 0.06 (at node 14)
Accepted flit rate average= 0.0515
	minimum = 0.042 (at node 14)
	maximum = 0.062 (at node 3)
Injected packet length average = 1
Accepted packet length average = 1
Total in-flight flits = 14 (14 measured)
latency change    = 0.0111379
throughput change = 0
Class 0:
Packet latency average = 19.6769
	minimum = 7
	maximum = 38
Network latency average = 19.6769
	minimum = 7
	maximum = 38
Slowest packet = 25364
Flit latency average = 19.7178
	minimum = 7
	maximum = 38
Slowest flit = 25323
Fragmentation average = 0
	minimum = 0
	maximum = 0
Injected packet rate average = 0.051
	minimum = 0.0433333 (at node 8)
	maximum = 0.0613333 (at node 14)
Accepted packet rate average = 0.0510833
	minimum = 0.042 (at node 7)
	maximum = 0.0586667 (at node 11)
Injected flit rate average = 0.051
	minimum = 0.0433333 (at node 8)
	maximum = 0.0613333 (at node 14)
Accepted flit rate average= 0.0510833
	minimum = 0.042 (at node 7)
	maximum = 0.0586667 (at node 11)
Injected packet length average = 1
Accepted packet length average = 1
Total in-flight flits = 14 (14 measured)
latency change    = 0.0159698
throughput change = 0.00815661
Draining all recorded packets ...
Draining remaining packets ...
Time taken is 3051 cycles
Class 0:
Packet latency average = 19.2906
	minimum = 7
	maximum = 38
Network latency average = 19.2906
	minimum = 7
	maximum = 38
Slowest packet = 26681
Flit latency average = 19.2906
	minimum = 7
	maximum = 38
Slowest flit = 26681
Fragmentation average = 0
	minimum = 0
	maximum = 0
Injected packet rate average = 0.050875
	minimum = 0.038 (at node 4)
	maximum = 0.072 (at node 15)
Accepted packet rate average = 0.04775
	minimum = 0.034 (at node 14)
	maximum = 0.066 (at node 11)
Injected flit rate average = 0.050875
	minimum = 0.038 (at node 4)
	maximum = 0.072 (at node 15)
Accepted flit rate average= 0.04775
	minimum = 0.034 (at node 14)
	maximum = 0.066 (at node 11)
Injected packet length average = 1
Accepted packet length average = 1
Total in-flight flits = 25 (0 measured)
latency change    = 1
throughput change = 1
Class 0:
Packet latency average = 19.6245
	minimum = 7
	maximum = 38
Network latency average = 19.6245
	minimum = 7
	maximum = 38
Slowest packet = 26681
Flit latency average = 19.6245
	minimum = 7
	maximum = 38
Slowest flit = 26681
Fragmentation average = 0
	minimum = 0
	maximum = 0
Injected packet rate average = 0.0484375
	minimum = 0.04 (at node 4)
	maximum = 0.061 (at node 12)
Accepted packet rate average = 0.0474375
	minimum = 0.036 (at node 14)
	maximum = 0.062 (at node 5)
Injected flit rate average = 0.0484375
	minimum = 0.04 (at node 4)
	maximum = 0.061 (at node 12)
Accepted flit rate average= 0.0474375
	minimum = 0.036 (at node 14)
	maximum = 0.062 (at node 5)
Injected packet length average = 1
Accepted packet length average = 1
Total in-flight flits = 16 (0 measured)
latency change    = 0.017016
throughput change = 0.00658762
Class 0:
Packet latency average = 19.5172
	minimum = 7
	maximum = 37
Network latency average = 19.5172
	minimum = 7
	maximum = 37
Slowest packet = 27437
Flit latency average = 19.5172
	minimum = 7
	maximum = 37
Slowest flit = 27437
Fragmentation average = 0
	minimum = 0
	maximum = 0
Injected packet rate average = 0.05075
	minimum = 0.038 (at node 6)
	maximum = 0.072 (at node 9)
Accepted packet rate average = 0.051
	minimum = 0.034 (at node 1)
	maximum = 0.07 (at node 7)
Injected flit rate average = 0.05075
	minimum = 0.038 (at node 6)
	maximum = 0.072 (at node 9)
Accepted flit rate average= 0.051
	minimum = 0.034 (at node 1)
	maximum = 0.07 (at node 7)
Injected packet length average = 1
Accepted packet length average = 1
Total in-flight flits = 14 (0 measured)
latency change    = 0.00550024
throughput change = 0.0698529
Warmed up ...Time used is 1500 cycles
Class 0:
Packet latency average = 19.2881
	minimum = 7
	maximum = 37
Network latency average = 19.2881
	minimum = 7
	maximum = 37
Slowest packet = 27770
Flit latency average = 19.4707
	minimum = 7
	maximum = 37
Slowest flit = 27732
Fragmentation average = 0
	minimum = 0
	maximum = 0
Injected packet rate average = 0.0535
	minimum = 0.028 (at node 3)
	maximum = 0.066 (at node 15)
Accepted packet rate average = 0.053375
	minimum = 0.032 (at node 1)
	maximum = 0.066 (at node 15)
Injected flit rate average = 0.0535
	minimum = 0.028 (at node 3)
	maximum = 0.066 (at node 15)
Accepted flit rate average= 0.053375
	minimum = 0.032 (at node 1)
	maximum = 0.066 (at node 15)
Injected packet length average = 1
Accepted packet length average = 1
Total in-flight flits = 15 (15 measured)
latency change    = 0.0118737
throughput change = 0.0444965
Class 0:
Packet latency average = 19.4454
	minimum = 7
	maximum = 38
Network latency average = 19.4454
	minimum = 7
	maximum = 38
Slowest packet = 28526
Flit latency average = 19.5368
	minimum = 7
	maximum = 38
Slowest flit = 28526
Fragmentation average = 0
	minimum = 0
	maximum = 0
Injected packet rate average = 0.051875
	minimum = 0.039 (at node 3)
	maximum = 0.065 (at node 10)
Accepted packet rate average = 0.0518125
	minimum = 0.045 (at node 1)
	maximum = 0.061 (at node 14)
Injected flit rate average = 0.051875
	minimum = 0.039 (at node 3)
	maximum = 0.065 (at node 10)
Accepted flit rate average= 0.0518125
	minimum = 0.045 (at node 1)
	maximum = 0.061 (at node 14)
Injected packet length average = 1
Accepted packet length average = 1
Total in-flight flits = 15 (15 measured)
latency change    = 0.00808742
throughput change = 0.0301568
Class 0:
Packet latency average = 19.2944
	minimum = 7
	maximum = 38
Network latency average = 19.2944
	minimum = 7
	maximum = 38
Slowest packet = 28526
Flit latency average = 19.3582
	minimum = 7
	maximum = 38
Slowest flit = 28526
Fragmentation average = 0
	minimum = 0
	maximum = 0
Injected packet rate average = 0.050875
	minimum = 0.0426667 (at node 2)
	maximum = 0.06 (at node 9)
Accepted packet rate average = 0.0508333
	minimum = 0.0446667 (at node 1)
	maximum = 0.0613333 (at node 13)
Injected flit rate average = 0.050875
	minimum = 0.0426667 (at node 2)
	maximum = 0.06 (at node 9)
Accepted flit rate average= 0.0508333
	minimum = 0.0446667 (at node 1)
	maximum = 0.0613333 (at node 13)
Injected packet length average = 1
Accepted packet length average = 1
Total in-flight flits = 15 (15 measured)
latency change    = 0.00782805
throughput change = 0.0192623
Draining all recorded packets ...
Draining remaining packets ...
Time taken is 3054 cycles
Class 0:
Packet latency average = 19.2356
	minimum = 7
	maximum = 38
Network latency average = 19.2356
	minimum = 7
	maximum = 38
Slowest packet = 29043
Flit latency average = 19.2356
	minimum = 7
	maximum = 38
Slowest flit = 29043
Fragmentation average = 0
	minimum = 0
	maximum = 0
Injected packet rate average = 0.04775
	minimum = 0.03 (at node 1)
	maximum = 0.064 (at node 4)
Accepted packet rate average = 0.045625
	minimum = 0.034 (at node 5)
	maximum = 0.064 (at node 10)
Injected flit rate average = 0.04775
	minimum = 0.03 (at node 1)
	maximum = 0.064 (at node 4)
Accepted flit rate average= 0.045625
	minimum = 0.034 (at node 5)
	maximum = 0.064 (at node 10)
Injected packet length average = 1
Accepted packet length average = 1
Total in-flight flits = 17 (0 measured)
latency change    = 1
throughput change = 1
Class 0:
Packet latency average = 19.6556
	minimum = 7
	maximum = 38
Network latency average = 19.6556
	minimum = 7
	maximum = 38
Slowest packet = 29043
Flit latency average = 19.6556
	minimum = 7
	maximum = 38
Slowest flit = 29043
Fragmentation average = 0
	minimum = 0
	maximum = 0
Injected packet rate average = 0.049625
	minimum = 0.033 (at node 10)
	maximum = 0.069 (at node 4)
Accepted packet rate average = 0.0488125
	minimum = 0.04 (at node 1)
	maximum = 0.059 (at node 10)
Injected flit rate average = 0.049625
	minimum = 0.033 (at node 10)
	maximum = 0.069 (at node 4)
Accepted flit rate average= 0.0488125
	minimum = 0.04 (at node 1)
	maximum = 0.059 (at node 10)
Injected packet length average = 1
Accepted packet length average = 1
Total in-flight flits = 13 (0 measured)
latency change    = 0.0213656
throughput change = 0.0653009
Class 0:
Packet latency average = 18.9601
	minimum = 7
	maximum = 37
Network latency average = 18.9601
	minimum = 7
	maximum = 37
Slowest packet = 29907
Flit latency average = 18.9601
	minimum = 7
	maximum = 37
Slowest flit = 29907
Fragmentation average = 0
	minimum = 0
	maximum = 0
Injected packet rate average = 0.047
	minimum = 0.028 (at node 2)
	maximum = 0.06 (at node 12)
Accepted packet rate average = 0.047
	minimum = 0.034 (at node 12)
	maximum = 0.056 (at node 4)
Injected flit rate average = 0.047
	minimum = 0.028 (at node 2)
	maximum = 0.06 (at node 12)
Accepted flit rate average= 0.047
	minimum = 0.034 (at node 12)
	maximum = 0.056 (at node 4)
Injected packet length average = 1
Accepted packet length average = 1
Total in-flight flits = 13 (0 measured)
latency change    = 0.0366804
throughput change = 0.0385638
Warmed up ...Time used is 1500 cycles
Class 0:
Packet latency average = 19.5314
	minimum = 7
	maximum = 37
Network latency average = 19.5314
	minimum = 7
	maximum = 37
Slowest packet = 30175
Flit latency average = 19.5714
	minimum = 7
	maximum = 37
Slowest flit = 30175
Fragmentation average = 0
	minimum = 0
	maximum = 0
Injected packet rate average = 0.0535
	minimum = 0.032 (at node 6)
	maximum = 0.068 (at node 11)
Accepted packet rate average = 0.053375
	minimum = 0.034 (at node 0)
	maximum = 0.074 (at node 14)
Injected flit rate average = 0.0535
	minimum = 0.032 (at node 6)
	maximum = 0.068 (at node 11)
Accepted flit rate average= 0.053375
	minimum = 0.034 (at node 0)
	maximum = 0.074 (at node 14)
Injected packet length average = 1
Accepted packet length average = 1
Total in-flight flits = 14 (14 measured)
latency change    = 0.0292501
throughput change = 0.119438
Class 0:
Packet latency average = 19.3825
	minimum = 7
	maximum = 38
Network latency average = 19.3825
	minimum = 7
	maximum = 38
Slowest packet = 30820
Flit latency average = 19.405
	minimum = 7
	maximum = 38
Slowest flit = 30820
Fragmentation average = 0
	minimum = 0
	maximum = 0
Injected packet rate average = 0.053
	minimum = 0.043 (at node 6)
	maximum = 0.06 (at node 2)
Accepted packet rate average = 0.0529375
	minimum = 0.046 (at node 1)
	maximum = 0.069 (at node 14)
Injected flit rate average = 0.053
	minimum = 0.043 (at node 6)
	maximum = 0.06 (at node 2)
Accepted flit rate average= 0.0529375
	minimum = 0.046 (at node 1)
	maximum = 0.069 (at node 14)
Injected packet length average = 1
Accepted packet length average = 1
Total in-flight flits = 14 (14 measured)
latency change    = 0.00768255
throughput change = 0.00826446
Class 0:
Packet latency average = 19.0008
	minimum = 7
	maximum = 38
Network latency average = 19.0008
	minimum = 7
	maximum = 38
Slowest packet = 30820
Flit latency average = 19.0201
	minimum = 7
	maximum = 38
Slowest flit = 30820
Fragmentation average = 0
	minimum = 0
	maximum = 0
Injected packet rate average = 0.0519167
	minimum = 0.0453333 (at node 15)
	maximum = 0.0613333 (at node 11)
Accepted packet rate average = 0.0518333
	minimum = 0.044 (at node 12)
	maximum = 0.0626667 (at node 15)
Injected flit rate average = 0.0519167
	minimum = 0.0453333 (at node 15)
	maximum = 0.0613333 (at node 11)
Accepted flit rate average= 0.0518333
	minimum = 0.044 (at node 12)
	maximum = 0.0626667 (at node 15)
Injected packet length average = 1
Accepted packet length average = 1
Total in-flight flits = 15 (15 measured)
latency change    = 0.0200876
throughput change = 0.0213023
Class 0:
Packet latency average = 18.9845
	minimum = 7
	maximum = 38
Network latency average = 18.9845
	minimum = 7
	maximum = 38
Slowest packet = 30820
Flit latency average = 18.9994
	minimum = 7
	maximum = 38
Slowest flit = 30820
Fragmentation average = 0
	minimum = 0
	maximum = 0
Injected packet rate average = 0.0507187
	minimum = 0.045 (at node 2)
	maximum = 0.062 (at node 11)
Accepted packet rate average = 0.0506875
	minimum = 0.045 (at node 7)
	maximum = 0.0605 (at node 14)
Injected flit rate average = 0.0507187
	minimum = 0.045 (at node 2)
	maximum = 0.062 (at node 11)
Accepted flit rate average= 0.0506875
	minimum = 0.045 (at node 7)
	maximum = 0.0605 (at node 14)
Injected packet length average = 1
Accepted packet length average = 1
Total in-flight flits = 14 (14 measured)
latency change    = 0.000861228
throughput change = 0.0226058
Draining all recorded packets ...
Draining remaining packets ...
Time taken is 3557 cycles
Class 0:
Packet latency average = 19.4189
	minimum = 7
	maximum = 38
Network latency average = 19.4189
	minimum = 7
	maximum = 38
Slowest packet = 31931
Flit latency average = 19.4189
	minimum = 7
	maximum = 38
Slowest flit = 31931
Fragmentation average = 0
	minimum = 0
	maximum = 0
Injected packet rate average = 0.0485
	minimum = 0.038 (at node 0)
	maximum = 0.082 (at node 14)
Accepted packet rate average = 0.04625
	minimum = 0.03 (at node 0)
	maximum = 0.064 (at node 11)
Injected flit rate average = 0.0485
	minimum = 0.038 (at node 0)
	maximum = 0.082 (at node 14)
Accepted flit rate average= 0.04625
	minimum = 0.03 (at node 0)
	maximum = 0.064 (at node 11)
Injected packet length average = 1
Accepted packet length average = 1
Total in-flight flits = 18 (0 measured)
latency change    = 1
throughput change = 1
Class 0:
Packet latency average = 19.7497
	minimum = 7
	maximum = 38
Network latency average = 19.7497
	minimum = 7
	maximum = 38
Slowest packet = 31931
Flit latency average = 19.7497
	minimum = 7
	maximum = 38
Slowest flit = 31931
Fragmentation average = 0
	minimum = 0
	maximum = 0
Injected packet rate average = 0.05075
	minimum = 0.038 (at node 11)
	maximum = 0.065 (at node 14)
Accepted packet rate average = 0.0494375
	minimum = 0.037 (at node 13)
	maximum = 0.063 (at node 11)
Injected flit rate average = 0.05075
	minimum = 0.038 (at node 11)
	maximum = 0.065 (at node 14)
Accepted flit rate average= 0.0494375
	minimum = 0.037 (at node 13)
	maximum = 0.063 (at node 11)
Injected packet length average = 1
Accepted packet length average = 1
Total in-flight flits = 21 (0 measured)
latency change    = 0.0167479
throughput change = 0.0644753
Class 0:
Packet latency average = 19.3953
	minimum = 7
	maximum = 37
Network latency average = 19.3953
	minimum = 7
	maximum = 37
Slowest packet = 32657
Flit latency average = 19.3953
	minimum = 7
	maximum = 37
Slowest flit = 32657
Fragmentation average = 0
	minimum = 0
	maximum = 0
Injected packet rate average = 0.047125
	minimum = 0.016 (at node 15)
	maximum = 0.068 (at node 0)
Accepted packet rate average = 0.048375
	minimum = 0.03 (at node 11)
	maximum = 0.072 (at node 14)
Injected flit rate average = 0.047125
	minimum = 0.016 (at node 15)
	maximum = 0.068 (at node 0)
Accepted flit rate average= 0.048375
	minimum = 0.03 (at node 11)
	maximum = 0.072 (at node 14)
Injected packet length average = 1
Accepted packet length average = 1
Total in-flight flits = 11 (0 measured)
latency change    = 0.0182691
throughput change = 0.0219638
Warmed up ...Time used is 1500 cycles
Class 0:
Packet latency average = 19.9403
	minimum = 7
	maximum = 38
Network latency average = 19.9403
	minimum = 7
	maximum = 38
Slowest packet = 33047
Flit latency average = 19.9831
	minimum = 7
	maximum = 38
Slowest flit = 33047
Fragmentation average = 0
	minimum = 0
	maximum = 0
Injected packet rate average = 0.052
	minimum = 0.038 (at node 2)
	maximum = 0.074 (at node 12)
Accepted packet rate average = 0.051625
	minimum = 0.038 (at node 1)
	maximum = 0.072 (at node 10)
Injected flit rate average = 0.052
	minimum = 0.038 (at node 2)
	maximum = 0.074 (at node 12)
Accepted flit rate average= 0.051625
	minimum = 0.038 (at node 1)
	maximum = 0.072 (at node 10)
Injected packet length average = 1
Accepted packet length average = 1
Total in-flight flits = 14 (14 measured)
latency change    = 0.0273291
throughput change = 0.062954
Class 0:
Packet latency average = 19.3429
	minimum = 7
	maximum = 38
Network latency average = 19.3429
	minimum = 7
	maximum = 38
Slowest packet = 33047
Flit latency average = 19.3725
	minimum = 7
	maximum = 38
Slowest flit = 33047
Fragmentation average = 0
	minimum = 0
	maximum = 0
Injected packet rate average = 0.0510625
	minimum = 0.039 (at node 1)
	maximum = 0.077 (at node 13)
Accepted packet rate average = 0.051
	minimum = 0.041 (at node 8)
	maximum = 0.062 (at node 10)
Injected flit rate average = 0.0510625
	minimum = 0.039 (at node 1)
	maximum = 0.077 (at node 13)
Accepted flit rate average= 0.051
	minimum = 0.041 (at node 8)
	maximum = 0.062 (at node 10)
Injected packet length average = 1
Accepted packet length average = 1
Total in-flight flits = 12 (12 measured)
latency change    = 0.0308869
throughput change = 0.0122549
Class 0:
Packet latency average = 19.4597
	minimum = 7
	maximum = 38
Network latency average = 19.4597
	minimum = 7
	maximum = 38
Slowest packet = 33047
Flit latency average = 19.4784
	minimum = 7
	maximum = 38
Slowest flit = 33047
Fragmentation average = 0
	minimum = 0
	maximum = 0
Injected packet rate average = 0.051375
	minimum = 0.0433333 (at node 0)
	maximum = 0.07 (at node 13)
Accepted packet rate average = 0.051125
	minimum = 0.0406667 (at node 8)
	maximum = 0.0633333 (at node 10)
Injected flit rate average = 0.051375
	minimum = 0.0433333 (at node 0)
	maximum = 0.07 (at node 13)
Accepted flit rate average= 0.051125
	minimum = 0.0406667 (at node 8)
	maximum = 0.0633333 (at node 10)
Injected packet length average = 1
Accepted packet length average = 1
Total in-flight flits = 17 (17 measured)
latency change    = 0.00600455
throughput change = 0.00244499
Class 0:
Packet latency average = 19.4192
	minimum = 7
	maximum = 38
Network latency average = 19.4192
	minimum = 7
	maximum = 38
Slowest packet = 33047
Flit latency average = 19.4334
	minimum = 7
	maximum = 38
Slowest flit = 33047
Fragmentation average = 0
	minimum = 0
	maximum = 0
Injected packet rate average = 0.0515625
	minimum = 0.043 (at node 11)
	maximum = 0.0625 (at node 13)
Accepted packet rate average = 0.0514063
	minimum = 0.041 (at node 8)
	maximum = 0.059 (at node 11)
Injected flit rate average = 0.0515625
	minimum = 0.043 (at node 11)
	maximum = 0.0625 (at node 13)
Accepted flit rate average= 0.0514063
	minimum = 0.041 (at node 8)
	maximum = 0.059 (at node 11)
Injected packet length average = 1
Accepted packet length average = 1
Total in-flight flits = 16 (16 measured)
latency change    = 0.00208491
throughput change = 0.00547112
Draining all recorded packets ...
Draining remaining packets ...
Time taken is 3559 cycles
Class 0:
Packet latency average = 18.8649
	minimum = 7
	maximum = 38
Network latency average = 18.8649
	minimum = 7
	maximum = 38
Slowest packet = 34972
Flit latency average = 18.8649
	minimum = 7
	maximum = 38
Slowest flit = 34972
Fragmentation average = 0
	minimum = 0
	maximum = 0
Injected packet rate average = 0.05
	minimum = 0.03 (at node 7)
	maximum = 0.064 (at node 11)
Accepted packet rate average = 0.048125
	minimum = 0.032 (at node 1)
	maximum = 0.068 (at node 5)
Injected flit rate average = 0.05
	minimum = 0.03 (at node 7)
	maximum = 0.064 (at node 11)
Accepted flit rate average= 0.048125
	minimum = 0.032 (at node 1)
	maximum = 0.068 (at node 5)
Injected packet length average = 1
Accepted packet length average = 1
Total in-flight flits = 15 (0 measured)
latency change    = 1
throughput change = 1
Class 0:
Packet latency average = 19.2791
	minimum = 7
	maximum = 39
Network latency average = 19.2791
	minimum = 7
	maximum = 39
Slowest packet = 35230
Flit latency average = 19.2791
	minimum = 7
	maximum = 39
Slowest flit = 35230
Fragmentation average = 0
	minimum = 0
	maximum = 0
Injected packet rate average = 0.0499375
	minimum = 0.037 (at node 7)
	maximum = 0.062 (at node 14)
Accepted packet rate average = 0.0488125
	minimum = 0.033 (at node 13)
	maximum = 0.06 (at node 6)
Injected flit rate average = 0.0499375
	minimum = 0.037 (at node 7)
	maximum = 0.062 (at node 14)
Accepted flit rate average= 0.0488125
	minimum = 0.033 (at node 13)
	maximum = 0.06 (at node 6)
Injected packet length average = 1
Accepted packet length average = 1
Total in-flight flits = 18 (0 measured)
latency change    = 0.0214841
throughput change = 0.0140845
Class 0:
Packet latency average = 19.5226
	minimum = 7
	maximum = 38
Network latency average = 19.5226
	minimum = 7
	maximum = 38
Slowest packet = 35847
Flit latency average = 19.5226
	minimum = 7
	maximum = 38
Slowest flit = 35847
Fragmentation average = 0
	minimum = 0
	maximum = 0
Injected packet rate average = 0.05175
	minimum = 0.034 (at node 4)
	maximum = 0.072 (at node 8)
Accepted packet rate average = 0.052625
	minimum = 0.038 (at node 2)
	maximum = 0.066 (at node 9)
Injected flit rate average = 0.05175
	minimum = 0.034 (at node 4)
	maximum = 0.072 (at node 8)
Accepted flit rate average= 0.052625
	minimum = 0.038 (at node 2)
	maximum = 0.066 (at node 9)
Injected packet length average = 1
Accepted packet length average = 1
Total in-flight flits = 11 (0 measured)
latency change    = 0.0124695
throughput change = 0.0724466
Warmed up ...Time used is 1500 cycles
Class 0:
Packet latency average = 19.3241
	minimum = 7
	maximum = 37
Network latency average = 19.3241
	minimum = 7
	maximum = 37
Slowest packet = 35891
Flit latency average = 19.4731
	minimum = 7
	maximum = 37
Slowest flit = 35878
Fragmentation average = 0
	minimum = 0
	maximum = 0
Injected packet rate average = 0.047375
	minimum = 0.03 (at node 6)
	maximum = 0.06 (at node 15)
Accepted packet rate average = 0.0465
	minimum = 0.028 (at node 1)
	maximum = 0.06 (at node 7)
Injected flit rate average = 0.047375
	minimum = 0.03 (at node 6)
	maximum = 0.06 (at node 15)
Accepted flit rate average= 0.0465
	minimum = 0.028 (at node 1)
	maximum = 0.06 (at node 7)
Injected packet length average = 1
Accepted packet length average = 1
Total in-flight flits = 18 (18 measured)
latency change    = 0.0102704
throughput change = 0.13172
Class 0:
Packet latency average = 19.3363
	minimum = 7
	maximum = 37
Network latency average = 19.3363
	minimum = 7
	maximum = 37
Slowest packet = 35891
Flit latency average = 19.405
	minimum = 7
	maximum = 37
Slowest flit = 35878
Fragmentation average = 0
	minimum = 0
	maximum = 0
Injected packet rate average = 0.0505625
	minimum = 0.035 (at node 6)
	maximum = 0.065 (at node 15)
Accepted packet rate average = 0.0503125
	minimum = 0.041 (at node 1)
	maximum = 0.065 (at node 3)
Injected flit rate average = 0.0505625
	minimum = 0.035 (at node 6)
	maximum = 0.065 (at node 15)
Accepted flit rate average= 0.0503125
	minimum = 0.041 (at node 1)
	maximum = 0.065 (at node 3)
Injected packet length average = 1
Accepted packet length average = 1
Total in-flight flits = 15 (15 measured)
latency change    = 0.000629507
throughput change = 0.0757764
Class 0:
Packet latency average = 19.3781
	minimum = 7
	maximum = 38
Network latency average = 19.3781
	minimum = 7
	maximum = 38
Slowest packet = 36846
Flit latency average = 19.4229
	minimum = 7
	maximum = 38
Slowest flit = 36846
Fragmentation average = 0
	minimum = 0
	maximum = 0
Injected packet rate average = 0.0514583
	minimum = 0.0386667 (at node 6)
	maximum = 0.062 (at node 7)
Accepted packet rate average = 0.0510417
	minimum = 0.0386667 (at node 1)
	maximum = 0.06 (at node 3)
Injected flit rate average = 0.0514583
	minimum = 0.0386667 (at node 6)
	maximum = 0.062 (at node 7)
Accepted flit rate average= 0.0510417
	minimum = 0.0386667 (at node 1)
	maximum = 0.06 (at node 3)
Injected packet length average = 1
Accepted packet length average = 1
[...]
Fragmentation average = 0
	minimum = 0
	maximum = 0
Injected packet rate average = 0.0510625
	minimum = 0.036 (at node 15)
	maximum = 0.071 (at node 3)
Accepted packet rate average = 0.05125
	minimum = 0.035 (at node 12)
	maximum = 0.069 (at node 7)
Injected flit rate average = 0.0510625
	minimum = 0.036 (at node 15)
	maximum = 0.071 (at node 3)
Accepted flit rate average= 0.05125
	minimum = 0.035 (at node 12)
	maximum = 0.069 (at node 7)
Injected packet length average = 1
Accepted packet length average = 1
Total in-flight flits = 12 (12 measured)
latency change    = 0.00445248
throughput change = 0.0414634
Class 0:
Packet latency average = 19.6608
	minimum = 7
	maximum = 37
Network latency average = 19.6608
	minimum = 7
	maximum = 37
Slowest packet = 124460
Flit latency average = 19.7277
	minimum = 7
	maximum = 37
Slowest flit = 124436
Fragmentation average = 0
	minimum = 0
	maximum = 0
Injected packet rate average = 0.0503333
	minimum = 0.0413333 (at node 7)
	maximum = 0.0666667 (at node 3)
Accepted packet rate average = 0.0505
	minimum = 0.0353333 (at node 12)
	maximum = 0.0633333 (at node 7)
Injected flit rate average = 0.0503333
	minimum = 0.0413333 (at node 7)
	maximum = 0.0666667 (at node 3)
Accepted flit rate average= 0.0505
	minimum = 0.0353333 (at node 12)
	maximum = 0.0633333 (at node 7)
Injected packet length average = 1
Accepted packet length average = 1
Total in-flight flits = 11 (11 measured)
latency change    = 0.00928536
throughput change = 0.0148515
Class 0:
Packet latency average = 19.6921
	minimum = 7
	maximum = 38
Network latency average = 19.6921
	minimum = 7
	maximum = 38
Slowest packet = 125696
Flit latency average = 19.7416
	minimum = 7
	maximum = 38
Slowest flit = 125696
Fragmentation average = 0
	minimum = 0
	maximum = 0
Injected packet rate average = 0.0509063
	minimum = 0.0445 (at node 7)
	maximum = 0.064 (at node 3)
Accepted packet rate average = 0.0509063
	minimum = 0.0405 (at node 1)
	maximum = 0.06 (at node 3)
Injected flit rate average = 0.0509063
	minimum = 0.0445 (at node 7)
	maximum = 0.064 (at node 3)
Accepted flit rate average= 0.0509063
	minimum = 0.0405 (at node 1)
	maximum = 0.06 (at node 3)
Injected packet length average = 1
Accepted packet length average = 1
Total in-flight flits = 15 (15 measured)
latency change    = 0.00158697
throughput change = 0.00798036
Draining all recorded packets ...
Draining remaining packets ...
Time taken is 3551 cycles
Class 0:
Packet latency average = 18.9821
	minimum = 7
	maximum = 37
Network latency average = 18.9821
	minimum = 7
	maximum = 37
Slowest packet = 126178
Flit latency average = 18.9821
	minimum = 7
	maximum = 37
Slowest flit = 126178
Fragmentation average = 0
	minimum = 0
	maximum = 0
Injected packet rate average = 0.051
	minimum = 0.036 (at node 14)
	maximum = 0.07 (at node 4)
Accepted packet rate average = 0.048875
	minimum = 0.034 (at node 2)
	maximum = 0.064 (at node 14)
Injected flit rate average = 0.051
	minimum = 0.036 (at node 14)
	maximum = 0.07 (at node 4)
Accepted flit rate average= 0.048875
	minimum = 0.034 (at node 2)
	maximum = 0.064 (at node 14)
Injected packet length average = 1
Accepted packet length average = 1
Total in-flight flits = 17 (0 measured)
latency change    = 1
throughput change = 1
Class 0:
Packet latency average = 19.2771
	minimum = 7
	maximum = 37
Network latency average = 19.2771
	minimum = 7
	maximum = 37
Slowest packet = 126178
Flit latency average = 19.2771
	minimum = 7
	maximum = 37
Slowest flit = 126178
Fragmentation average = 0
	minimum = 0
	maximum = 0
Injected packet rate average = 0.0495625
	minimum = 0.042 (at node 1)
	maximum = 0.062 (at node 11)
Accepted packet rate average = 0.0489375
	minimum = 0.037 (at node 2)
	maximum = 0.06 (at node 14)
Injected flit rate average = 0.0495625
	minimum = 0.042 (at node 1)
	maximum = 0.062 (at node 11)
Accepted flit rate average= 0.0489375
	minimum = 0.037 (at node 2)
	maximum = 0.06 (at node 14)
Injected packet length average = 1
Accepted packet length average = 1
Total in-flight flits = 10 (0 measured)
latency change    = 0.0153053
throughput change = 0.00127714
Class 0:
Packet latency average = 18.9814
	minimum = 7
	maximum = 38
Network latency average = 18.9814
	minimum = 7
	maximum = 38
Slowest packet = 127056
Flit latency average = 18.9814
	minimum = 7
	maximum = 38
Slowest flit = 127056
Fragmentation average = 0
	minimum = 0
	maximum = 0
Injected packet rate average = 0.04775
	minimum = 0.03 (at node 11)
	maximum = 0.058 (at node 3)
Accepted packet rate average = 0.047125
	minimum = 0.034 (at node 13)
	maximum = 0.06 (at node 10)
Injected flit rate average = 0.04775
	minimum = 0.03 (at node 11)
	maximum = 0.058 (at node 3)
Accepted flit rate average= 0.047125
	minimum = 0.034 (at node 13)
	maximum = 0.06 (at node 10)
Injected packet length average = 1
Accepted packet length average = 1
Total in-flight flits = 15 (0 measured)
latency change    = 0.0155787
throughput change = 0.0384615
Warmed up ...Time used is 1500 cycles
Class 0:
Packet latency average = 19.2342
	minimum = 7
	maximum = 37
Network latency average = 19.2342
	minimum = 7
	maximum = 37
Slowest packet = 127288
Flit latency average = 19.443
	minimum = 7
	maximum = 38
Slowest flit = 127257
Fragmentation average = 0
	minimum = 0
	maximum = 0
Injected packet rate average = 0.048875
	minimum = 0.034 (at node 5)
	maximum = 0.06 (at node 9)
Accepted packet rate average = 0.049375
	minimum = 0.032 (at node 1)
	maximum = 0.068 (at node 7)
Injected flit rate average = 0.048875
	minimum = 0.034 (at node 5)
	maximum = 0.06 (at node 9)
Accepted flit rate average= 0.049375
	minimum = 0.032 (at node 1)
	maximum = 0.068 (at node 7)
Injected packet length average = 1
Accepted packet length average = 1
Total in-flight flits = 11 (11 measured)
latency change    = 0.0131421
throughput change = 0.0455696
Class 0:
Packet latency average = 19.4033
	minimum = 7
	maximum = 38
Network latency average = 19.4033
	minimum = 7
	maximum = 38
Slowest packet = 127751
Flit latency average = 19.5018
	minimum = 7
	maximum = 38
Slowest flit = 127257
Fragmentation average = 0
	minimum = 0
	maximum = 0
Injected packet rate average = 0.0503125
	minimum = 0.034 (at node 4)
	maximum = 0.059 (at node 0)
Accepted packet rate average = 0.0506875
	minimum = 0.037 (at node 15)
	maximum = 0.065 (at node 0)
Injected flit rate average = 0.0503125
	minimum = 0.034 (at node 4)
	maximum = 0.059 (at node 0)
Accepted flit rate average= 0.0506875
	minimum = 0.037 (at node 15)
	maximum = 0.065 (at node 0)
Injected packet length average = 1
Accepted packet length average = 1
Total in-flight flits = 9 (9 measured)
latency change    = 0.00871275
throughput change = 0.025894
Class 0:
Packet latency average = 19.5619
	minimum = 7
	maximum = 38
Network latency average = 19.5619
	minimum = 7
	maximum = 38
Slowest packet = 127751
Flit latency average = 19.6265
	minimum = 7
	maximum = 38
Slowest flit = 127257
Fragmentation average = 0
	minimum = 0
	maximum = 0
Injected packet rate average = 0.0499583
	minimum = 0.038 (at node 4)
	maximum = 0.06 (at node 0)
Accepted packet rate average = 0.0500833
	minimum = 0.038 (at node 9)
	maximum = 0.0606667 (at node 0)
Injected flit rate average = 0.0499583
	minimum = 0.038 (at node 4)
	maximum = 0.06 (at node 0)
Accepted flit rate average= 0.0500833
	minimum = 0.038 (at node 9)
	maximum = 0.0606667 (at node 0)
Injected packet length average = 1
Accepted packet length average = 1
Total in-flight flits = 12 (12 measured)
latency change    = 0.00811037
throughput change = 0.0120632
Draining all recorded packets ...
Draining remaining packets ...
Time taken is 3052 cycles
Class 0:
Packet latency average = 19.7815
	minimum = 7
	maximum = 37
Network latency average = 19.7815
	minimum = 7
	maximum = 37
Slowest packet = 128523
Flit latency average = 19.7815
	minimum = 7
	maximum = 37
Slowest flit = 128523
Fragmentation average = 0
	minimum = 0
	maximum = 0
Injected packet rate average = 0.051125
	minimum = 0.038 (at node 3)
	maximum = 0.066 (at node 0)
Accepted packet rate average = 0.048625
	minimum = 0.032 (at node 5)
	maximum = 0.07 (at node 3)
Injected flit rate average = 0.051125
	minimum = 0.038 (at node 3)
	maximum = 0.066 (at node 0)
Accepted flit rate average= 0.048625
	minimum = 0.032 (at node 5)
	maximum = 0.07 (at node 3)
Injected packet length average = 1
Accepted packet length average = 1
Total in-flight flits = 20 (0 measured)
latency change    = 1
throughput change = 1
Class 0:
Packet latency average = 19.6502
	minimum = 7
	maximum = 38
Network latency average = 19.6502
	minimum = 7
	maximum = 38
Slowest packet = 129084
Flit latency average = 19.6502
	minimum = 7
	maximum = 38
Slowest flit = 129084
Fragmentation average = 0
	minimum = 0
	maximum = 0
Injected packet rate average = 0.0505625
	minimum = 0.038 (at node 14)
	maximum = 0.062 (at node 0)
Accepted packet rate average = 0.0493125
	minimum = 0.034 (at node 2)
	maximum = 0.07 (at node 14)
Injected flit rate average = 0.0505625
	minimum = 0.038 (at node 14)
	maximum = 0.062 (at node 0)
Accepted flit rate average= 0.0493125
	minimum = 0.034 (at node 2)
	maximum = 0.07 (at node 14)
Injected packet length average = 1
Accepted packet length average = 1
Total in-flight flits = 20 (0 measured)
latency change    = 0.00668191
throughput change = 0.0139417
Class 0:
Packet latency average = 19.0211
	minimum = 7
	maximum = 37
Network latency average = 19.0211
	minimum = 7
	maximum = 37
Slowest packet = 129276
Flit latency average = 19.0211
	minimum = 7
	maximum = 37
Slowest flit = 129276
Fragmentation average = 0
	minimum = 0
	maximum = 0
Injected packet rate average = 0.052625
	minimum = 0.034 (at node 15)
	maximum = 0.066 (at node 1)
Accepted packet rate average = 0.05325
	minimum = 0.036 (at node 7)
	maximum = 0.072 (at node 4)
Injected flit rate average = 0.052625
	minimum = 0.034 (at node 15)
	maximum = 0.066 (at node 1)
Accepted flit rate average= 0.05325
	minimum = 0.036 (at node 7)
	maximum = 0.072 (at node 4)
Injected packet length average = 1
Accepted packet length average = 1
Total in-flight flits = 15 (0 measured)
latency change    = 0.0330718
throughput change = 0.0739437
Warmed up ...Time used is 1500 cycles
Class 0:
Packet latency average = 19.4746
	minimum = 7
	maximum = 37
Network latency average = 19.4746
	minimum = 7
	maximum = 37
Slowest packet = 129912
Flit latency average = 19.5697
	minimum = 7
	maximum = 37
Slowest flit = 129912
Fragmentation average = 0
	minimum = 0
	maximum = 0
Injected packet rate average = 0.051375
	minimum = 0.036 (at node 0)
	maximum = 0.078 (at node 11)
Accepted packet rate average = 0.051125
	minimum = 0.036 (at node 2)
	maximum = 0.076 (at node 15)
Injected flit rate average = 0.051375
	minimum = 0.036 (at node 0)
	maximum = 0.078 (at node 11)
Accepted flit rate average= 0.051125
	minimum = 0.036 (at node 2)
	maximum = 0.076 (at node 15)
Injected packet length average = 1
Accepted packet length average = 1
Total in-flight flits = 17 (17 measured)
latency change    = 0.0232863
throughput change = 0.0415648
Class 0:
Packet latency average = 19.3557
	minimum = 7
	maximum = 37
Network latency average = 19.3557
	minimum = 7
	maximum = 37
Slowest packet = 129912
Flit latency average = 19.4043
	minimum = 7
	maximum = 37
Slowest flit = 129912
Fragmentation average = 0
	minimum = 0
	maximum = 0
Injected packet rate average = 0.052375
	minimum = 0.041 (at node 0)
	maximum = 0.069 (at node 11)
Accepted packet rate average = 0.05225
	minimum = 0.044 (at node 12)
	maximum = 0.067 (at node 15)
Injected flit rate average = 0.052375
	minimum = 0.041 (at node 0)
	maximum = 0.069 (at node 11)
Accepted flit rate average= 0.05225
	minimum = 0.044 (at node 12)
	maximum = 0.067 (at node 15)
Injected packet length average = 1
Accepted packet length average = 1
Total in-flight flits = 17 (17 measured)
latency change    = 0.00614577
throughput change = 0.0215311
Class 0:
Packet latency average = 19.3181
	minimum = 7
	maximum = 37
Network latency average = 19.3181
	minimum = 7
	maximum = 37
Slowest packet = 129912
Flit latency average = 19.3513
	minimum = 7
	maximum = 37
Slowest flit = 129912
Fragmentation average = 0
	minimum = 0
	maximum = 0
Injected packet rate average = 0.0519167
	minimum = 0.044 (at node 0)
	maximum = 0.0633333 (at node 10)
Accepted packet rate average = 0.0518333
	minimum = 0.0413333 (at node 7)
	maximum = 0.0633333 (at node 15)
Injected flit rate average = 0.0519167
	minimum = 0.044 (at node 0)
	maximum = 0.0633333 (at node 10)
Accepted flit rate average= 0.0518333
	minimum = 0.0413333 (at node 7)
	maximum = 0.0633333 (at node 15)
Injected packet length average = 1
Accepted packet length average = 1
Total in-flight flits = 17 (17 measured)
latency change    = 0.00194216
throughput change = 0.00803859
Draining all recorded packets ...
Draining remaining packets ...
Time taken is 3045 cycles
Class 0:
Packet latency average = 19.6388
	minimum = 7
	maximum = 38
Network latency average = 19.6388
	minimum = 7
	maximum = 38
Slowest packet = 131329
Flit latency average = 19.6388
	minimum = 7
	maximum = 38
Slowest flit = 131329
Fragmentation average = 0
	minimum = 0
	maximum = 0
Injected packet rate average = 0.04775
	minimum = 0.04 (at node 12)
	maximum = 0.058 (at node 2)
Accepted packet rate average = 0.046375
	minimum = 0.032 (at node 9)
	maximum = 0.06 (at node 15)
Injected flit rate average = 0.04775
	minimum = 0.04 (at node 12)
	maximum = 0.058 (at node 2)
Accepted flit rate average= 0.046375
	minimum = 0.032 (at node 9)
	maximum = 0.06 (at node 15)
Injected packet length average = 1
Accepted packet length average = 1
Total in-flight flits = 11 (0 measured)
latency change    = 1
throughput change = 1
Class 0:
Packet latency average = 19.4351
	minimum = 7
	maximum = 38
Network latency average = 19.4351
	minimum = 7
	maximum = 38
Slowest packet = 131329
Flit latency average = 19.4351
	minimum = 7
	maximum = 38
Slowest flit = 131329
Fragmentation average = 0
	minimum = 0
	maximum = 0
Injected packet rate average = 0.0495625
	minimum = 0.043 (at node 12)
	maximum = 0.063 (at node 11)
Accepted packet rate average = 0.048125
	minimum = 0.038 (at node 13)
	maximum = 0.059 (at node 7)
Injected flit rate average = 0.0495625
	minimum = 0.043 (at node 12)
	maximum = 0.063 (at node 11)
Accepted flit rate average= 0.048125
	minimum = 0.038 (at node 13)
	maximum = 0.059 (at node 7)
Injected packet length average = 1
Accepted packet length average = 1
Total in-flight flits = 23 (0 measured)
latency change    = 0.0104836
throughput change = 0.0363636
Class 0:
Packet latency average = 19.5962
	minimum = 7
	maximum = 37
Network latency average = 19.5962
	minimum = 7
	maximum = 37
Slowest packet = 131747
Flit latency average = 19.5962
	minimum = 7
	maximum = 37
Slowest flit = 131747
Fragmentation average = 0
	minimum = 0
	maximum = 0
Injected packet rate average = 0.052375
	minimum = 0.032 (at node 2)
	maximum = 0.076 (at node 9)
Accepted packet rate average = 0.05325
	minimum = 0.044 (at node 2)
	maximum = 0.078 (at node 7)
Injected flit rate average = 0.052375
	minimum = 0.032 (at node 2)
	maximum = 0.076 (at node 9)
Accepted flit rate average= 0.05325
	minimum = 0.044 (at node 2)
	maximum = 0.078 (at node 7)
Injected packet length average = 1
Accepted packet length average = 1
Total in-flight flits = 16 (0 measured)
latency change    = 0.008225
throughput change = 0.0962441
Warmed up ...Time used is 1500 cycles
Class 0:
Packet latency average = 18.8556
	minimum = 7
	maximum = 37
Network latency average = 18.8556
	minimum = 7
	maximum = 37
Slowest packet = 132480
Flit latency average = 19.0605
	minimum = 7
	maximum = 37
Slowest flit = 132480
Fragmentation average = 0
	minimum = 0
	maximum = 0
Injected packet rate average = 0.049125
	minimum = 0.026 (at node 14)
	maximum = 0.07 (at node 9)
Accepted packet rate average = 0.049625
	minimum = 0.036 (at node 15)
	maximum = 0.07 (at node 4)
Injected flit rate average = 0.049125
	minimum = 0.026 (at node 14)
	maximum = 0.07 (at node 9)
Accepted flit rate average= 0.049625
	minimum = 0.036 (at node 15)
	maximum = 0.07 (at node 4)
Injected packet length average = 1
Accepted packet length average = 1
Total in-flight flits = 12 (12 measured)
latency change    = 0.0392774
throughput change = 0.0730479
Class 0:
Packet latency average = 19.2599
	minimum = 7
	maximum = 38
Network latency average = 19.2599
	minimum = 7
	maximum = 38
Slowest packet = 132621
Flit latency average = 19.3533
	minimum = 7
	maximum = 38
Slowest flit = 132621
Fragmentation average = 0
	minimum = 0
	maximum = 0
Injected packet rate average = 0.0500625
	minimum = 0.04 (at node 0)
	maximum = 0.063 (at node 6)
Accepted packet rate average = 0.0500625
	minimum = 0.04 (at node 15)
	maximum = 0.065 (at node 8)
Injected flit rate average = 0.0500625
	minimum = 0.04 (at node 0)
	maximum = 0.063 (at node 6)
Accepted flit rate average= 0.0500625
	minimum = 0.04 (at node 15)
	maximum = 0.065 (at node 8)
Injected packet length average = 1
Accepted packet length average = 1
Total in-flight flits = 16 (16 measured)
latency change    = 0.0209882
throughput change = 0.00873908
Class 0:
Packet latency average = 19.3074
	minimum = 7
	maximum = 38
Network latency average = 19.3074
	minimum = 7
	maximum = 38
Slowest packet = 132621
Flit latency average = 19.3698
	minimum = 7
	maximum = 38
Slowest flit = 132621
Fragmentation average = 0
	minimum = 0
	maximum = 0
Injected packet rate average = 0.0493333
	minimum = 0.0393333 (at node 0)
	maximum = 0.06 (at node 6)
Accepted packet rate average = 0.0494583
	minimum = 0.036 (at node 15)
	maximum = 0.064 (at node 8)
Injected flit rate average = 0.0493333
	minimum = 0.0393333 (at node 0)
	maximum = 0.06 (at node 6)
Accepted flit rate average= 0.0494583
	minimum = 0.036 (at node 15)
	maximum = 0.064 (at node 8)
Injected packet length average = 1
Accepted packet length average = 1
Total in-flight flits = 13 (13 measured)
latency change    = 0.00246314
throughput change = 0.0122157
Class 0:
Packet latency average = 19.31
	minimum = 7
	maximum = 38
Network latency average = 19.31
	minimum = 7
	maximum = 38
Slowest packet = 132621
Flit latency average = 19.3566
	minimum = 7
	maximum = 38
Slowest flit = 132621
Fragmentation average = 0
	minimum = 0
	maximum = 0
Injected packet rate average = 0.0495937
	minimum = 0.04 (at node 0)
	maximum = 0.0575 (at node 4)
Accepted packet rate average = 0.0495937
	minimum = 0.0385 (at node 15)
	maximum = 0.0555 (at node 8)
Injected flit rate average = 0.0495937
	minimum = 0.04 (at node 0)
	maximum = 0.0575 (at node 4)
Accepted flit rate average= 0.0495937
	minimum = 0.0385 (at node 15)
	maximum = 0.0555 (at node 8)
Injected packet length average = 1
Accepted packet length average = 1
Total in-flight flits = 16 (16 measured)
latency change    = 0.000132786
throughput change = 0.00273052
Draining all recorded packets ...
Draining remaining packets ...
Time taken is 3560 cycles
====== Overall Traffic Statistics ======
====== Traffic class 0 ======
Packet latency average = 19.4821 (50 samples)
	minimum = 7 (50 samples)
	maximum = 37.78 (50 samples)
Network latency average = 19.482 (50 samples)
	minimum = 7 (50 samples)
	maximum = 37.78 (50 samples)
Flit latency average = 19.5162 (50 samples)
	minimum = 7 (50 samples)
	maximum = 37.78 (50 samples)
Fragmentation average = 0 (50 samples)
	minimum = 0 (50 samples)
	maximum = 0 (50 samples)
Injected packet rate average = 0.0501236 (50 samples)
	minimum = 0.0411893 (50 samples)
	maximum = 0.0588413 (50 samples)
Accepted packet rate average = 0.0501729 (50 samples)
	minimum = 0.0409273 (50 samples)
	maximum = 0.0594107 (50 samples)
Injected flit rate average = 0.0501236 (50 samples)
	minimum = 0.0411893 (50 samples)
	maximum = 0.0588413 (50 samples)
Accepted flit rate average = 0.0501729 (50 samples)
	minimum = 0.0409273 (50 samples)
	maximum = 0.0594107 (50 samples)
Injected packet size average = 1 (50 samples)
Accepted packet size average = 1 (50 samples)
Hops average = 3.48765 (50 samples)
Total run time 2.0116
