BEGIN Configuration File: /tmp/tmpzwiawksv.cfg
topology = mesh;
k = 4;
n = 2;
routing_function = gnn_port_score_route_4x4_v4;
num_vcs = 4;
vc_buf_size = 4;
wait_for_tail_credit = 1;
vc_allocator = islip;
sw_allocator = islip;
alloc_iters = 1;
credit_delay = 2;
routing_delay = 1;
vc_alloc_delay = 1;
sw_alloc_delay = 1;
input_speedup = 2;
output_speedup = 1;
internal_speedup = 1.0;
traffic = transpose;
packet_size = 1;
sim_type = latency;
injection_rate = 0.01;
warmup_periods = 3;
sample_period = 500;
sim_count = 50;
seed = 1;
link_failures = 0;
fail_seed = 101;

END Configuration File: /tmp/tmpzwiawksv.cfg
Class 0:
Packet latency average = 19.7907
	minimum = 7
	maximum = 37
Network latency average = 19.7907
	minimum = 7
	maximum = 37
Slowest packet = 5
Flit latency average = 19.7907
	minimum = 7
	maximum = 37
Slowest flit = 5
Fragmentation average = 0
	minimum = 0
	maximum = 0
Injected packet rate average = 0.011125
	minimum = 0.006 (at node 1)
	maximum = 0.022 (at node 7)
Accepted packet rate average = 0.01075
	minimum = 0.004 (at node 2)
	maximum = 0.022 (at node 13)
Injected flit rate average = 0.011125
	minimum = 0.006 (at node 1)
	maximum = 0.022 (at node 7)
Accepted flit rate average= 0.01075
	minimum = 0.004 (at node 2)
	maximum = 0.022 (at node 13)
Injected packet length average = 1
Accepted packet length average = 1
Total in-flight flits = 3 (0 measured)
latency change    = 1
throughput change = 1
Class 0:
Packet latency average = 18.4881
	minimum = 7
	maximum = 37
Network latency average = 18.4881
	minimum = 7
	maximum = 37
Slowest packet = 5
Flit latency average = 18.4881
	minimum = 7
	maximum = 37
Slowest flit = 5
Fragmentation average = 0
	minimum = 0
	maximum = 0
Injected packet rate average = 0.0108125
	minimum = 0.006 (at node 2)
	maximum = 0.019 (at node 7)
Accepted packet rate average = 0.0105
	minimum = 0.006 (at node 8)
	maximum = 0.019 (at node 13)
Injected flit rate average = 0.0108125
	minimum = 0.006 (at node 2)
	maximum = 0.019 (at node 7)
Accepted flit rate average= 0.0105
	minimum = 0.006 (at node 8)
	maximum = 0.019 (at node 13)
Injected packet length average = 1
Accepted packet length average = 1
Total in-flight flits = 5 (0 measured)
latency change    = 0.0704563
throughput change = 0.0238095
Class 0:
Packet latency average = 21.1096
	minimum = 7
	maximum = 37
Network latency average = 21.1096
	minimum = 7
	maximum = 37
Slowest packet = 164
Flit latency average = 21.1096
	minimum = 7
	maximum = 37
Slowest flit = 164
Fragmentation average = 0
	minimum = 0
	maximum = 0
Injected packet rate average = 0.009
	minimum = 0.002 (at node 6)
	maximum = 0.026 (at node 12)
Accepted packet rate average = 0.009125
	minimum = 0.002 (at node 9)
	maximum = 0.03 (at node 3)
Injected flit rate average = 0.009
	minimum = 0.002 (at node 6)
	maximum = 0.026 (at node 12)
Accepted flit rate average= 0.009125
	minimum = 0.002 (at node 9)
	maximum = 0.03 (at node 3)
Injected packet length average = 1
Accepted packet length average = 1
Total in-flight flits = 4 (0 measured)
latency change    = 0.124185
throughput change = 0.150685
Warmed up ...Time used is 1500 cycles
Class 0:
Packet latency average = 21.1359
	minimum = 7
	maximum = 45
Network latency average = 21.1359
	minimum = 7
	maximum = 45
Slowest packet = 325
Flit latency average = 21.3551
	minimum = 7
	maximum = 45
Slowest flit = 325
Fragmentation average = 0
	minimum = 0
	maximum = 0
Injected packet rate average = 0.0135
	minimum = 0.006 (at node 2)
	maximum = 0.026 (at node 8)
Accepted packet rate average = 0.013375
	minimum = 0.006 (at node 8)
	maximum = 0.026 (at node 2)
Injected flit rate average = 0.0135
	minimum = 0.006 (at node 2)
	maximum = 0.026 (at node 8)
Accepted flit rate average= 0.013375
	minimum = 0.006 (at node 8)
	maximum = 0.026 (at node 2)
Injected packet length average = 1
Accepted packet length average = 1
Total in-flight flits = 5 (5 measured)
latency change    = 0.0012459
throughput change = 0.317757
Class 0:
Packet latency average = 20.0895
	minimum = 7
	maximum = 45
Network latency average = 20.0895
	minimum = 7
	maximum = 45
Slowest packet = 325
Flit latency average = 20.232
	minimum = 7
	maximum = 45
Slowest flit = 325
Fragmentation average = 0
	minimum = 0
	maximum = 0
Injected packet rate average = 0.0119375
	minimum = 0.007 (at node 0)
	maximum = 0.019 (at node 8)
Accepted packet rate average = 0.012125
	minimum = 0.007 (at node 0)
	maximum = 0.02 (at node 2)
Injected flit rate average = 0.0119375
	minimum = 0.007 (at node 0)
	maximum = 0.019 (at node 8)
Accepted flit rate average= 0.012125
	minimum = 0.007 (at node 0)
	maximum = 0.02 (at node 2)
Injected packet length average = 1
Accepted packet length average = 1
Total in-flight flits = 1 (1 measured)
latency change    = 0.0520894
throughput change = 0.103093
Class 0:
Packet latency average = 20.2472
	minimum = 7
	maximum = 45
Network latency average = 20.2472
	minimum = 7
	maximum = 45
Slowest packet = 325
Flit latency average = 20.3469
	minimum = 7
	maximum = 45
Slowest flit = 325
Fragmentation average = 0
	minimum = 0
	maximum = 0
Injected packet rate average = 0.0112083
	minimum = 0.006 (at node 0)
	maximum = 0.0153333 (at node 8)
Accepted packet rate average = 0.0112917
	minimum = 0.006 (at node 0)
	maximum = 0.016 (at node 2)
Injected flit rate average = 0.0112083
	minimum = 0.006 (at node 0)
	maximum = 0.0153333 (at node 8)
Accepted flit rate average= 0.0112917
	minimum = 0.006 (at node 0)
	maximum = 0.016 (at node 2)
Injected packet length average = 1
Accepted packet length average = 1
Total in-flight flits = 2 (2 measured)
latency change    = 0.00778959
throughput change = 0.0738007
Class 0:
Packet latency average = 20.2249
	minimum = 7
	maximum = 45
Network latency average = 20.2249
	minimum = 7
	maximum = 45
Slowest packet = 325
Flit latency average = 20.3041
	minimum = 7
	maximum = 45
Slowest flit = 325
Fragmentation average = 0
	minimum = 0
	maximum = 0
Injected packet rate average = 0.0106875
	minimum = 0.0055 (at node 0)
	maximum = 0.0135 (at node 8)
Accepted packet rate average = 0.0106875
	minimum = 0.0055 (at node 0)
	maximum = 0.014 (at node 2)
Injected flit rate average = 0.0106875
	minimum = 0.0055 (at node 0)
	maximum = 0.0135 (at node 8)
Accepted flit rate average= 0.0106875
	minimum = 0.0055 (at node 0)
	maximum = 0.014 (at node 2)
Injected packet length average = 1
Accepted packet length average = 1
Total in-flight flits = 4 (4 measured)
latency change    = 0.00110453
throughput change = 0.0565302
Class 0:
Packet latency average = 19.9378
	minimum = 7
	maximum = 45
Network latency average = 19.9378
	minimum = 7
	maximum = 45
Slowest packet = 325
Flit latency average = 20.0047
	minimum = 7
	maximum = 45
Slowest flit = 325
Fragmentation average = 0
	minimum = 0
	maximum = 0
Injected packet rate average = 0.010475
	minimum = 0.006 (at node 0)
	maximum = 0.0132 (at node 6)
Accepted packet rate average = 0.01055
	minimum = 0.006 (at node 0)
	maximum = 0.0136 (at node 11)
Injected flit rate average = 0.010475
	minimum = 0.006 (at node 0)
	maximum = 0.0132 (at node 6)
Accepted flit rate average= 0.01055
	minimum = 0.006 (at node 0)
	maximum = 0.0136 (at node 11)
Injected packet length average = 1
Accepted packet length average = 1
Total in-flight flits = 1 (1 measured)
latency change    = 0.0143974
throughput change = 0.0130332
Class 0:
Packet latency average = 20.1056
	minimum = 7
	maximum = 45
Network latency average = 20.1056
	minimum = 7
	maximum = 45
Slowest packet = 325
Flit latency average = 20.1601
	minimum = 7
	maximum = 45
Slowest flit = 325
Fragmentation average = 0
	minimum = 0
	maximum = 0
Injected packet rate average = 0.0105208
	minimum = 0.00733333 (at node 0)
	maximum = 0.0133333 (at node 14)
Accepted packet rate average = 0.0105417
	minimum = 0.00733333 (at node 0)
	maximum = 0.0136667 (at node 11)
Injected flit rate average = 0.0105208
	minimum = 0.00733333 (at node 0)
	maximum = 0.0133333 (at node 14)
Accepted flit rate average= 0.0105417
	minimum = 0.00733333 (at node 0)
	maximum = 0.0136667 (at node 11)
Injected packet length average = 1
Accepted packet length average = 1
Total in-flight flits = 3 (3 measured)
latency change    = 0.00834488
throughput change = 0.000790514
Class 0:
Packet latency average = 20.3568
	minimum = 7
	maximum = 45
Network latency average = 20.3568
	minimum = 7
	maximum = 45
Slowest packet = 325
Flit latency average = 20.402
	minimum = 7
	maximum = 45
Slowest flit = 325
Fragmentation average = 0
	minimum = 0
	maximum = 0
Injected packet rate average = 0.0105
	minimum = 0.00742857 (at node 10)
	maximum = 0.0131429 (at node 1)
Accepted packet rate average = 0.0104821
	minimum = 0.00742857 (at node 10)
	maximum = 0.0128571 (at node 11)
Injected flit rate average = 0.0105
	minimum = 0.00742857 (at node 10)
	maximum = 0.0131429 (at node 1)
Accepted flit rate average= 0.0104821
	minimum = 0.00742857 (at node 10)
	maximum = 0.0128571 (at node 11)
Injected packet length average = 1
Accepted packet length average = 1
Total in-flight flits = 5 (5 measured)
latency change    = 0.0123398
throughput change = 0.00567859
Draining all recorded packets ...
Draining remaining packets ...
Time taken is 5056 cycles
Class 0:
Packet latency average = 17.9524
	minimum = 7
	maximum = 37
Network latency average = 17.9524
	minimum = 7
	maximum = 37
Slowest packet = 846
Flit latency average = 17.9524
	minimum = 7
	maximum = 37
Slowest flit = 846
Fragmentation average = 0
	minimum = 0
	maximum = 0
Injected packet rate average = 0.0085
	minimum = 0.004 (at node 1)
	maximum = 0.016 (at node 10)
Accepted packet rate average = 0.007875
	minimum = 0.002 (at node 4)
	maximum = 0.016 (at node 10)
Injected flit rate average = 0.0085
	minimum = 0.004 (at node 1)
	maximum = 0.016 (at node 10)
Accepted flit rate average= 0.007875
	minimum = 0.002 (at node 4)
	maximum = 0.016 (at node 10)
Injected packet length average = 1
Accepted packet length average = 1
Total in-flight flits = 5 (0 measured)
latency change    = 1
throughput change = 1
Class 0:
Packet latency average = 19.0152
	minimum = 7
	maximum = 43
Network latency average = 19.0152
	minimum = 7
	maximum = 43
Slowest packet = 905
Flit latency average = 19.0152
	minimum = 7
	maximum = 43
Slowest flit = 905
Fragmentation average = 0
	minimum = 0
	maximum = 0
Injected packet rate average = 0.0084375
	minimum = 0.004 (at node 1)
	maximum = 0.013 (at node 0)
Accepted packet rate average = 0.00825
	minimum = 0.004 (at node 4)
	maximum = 0.013 (at node 10)
Injected flit rate average = 0.0084375
	minimum = 0.004 (at node 1)
	maximum = 0.013 (at node 0)
Accepted flit rate average= 0.00825
	minimum = 0.004 (at node 4)
	maximum = 0.013 (at node 10)
Injected packet length average = 1
Accepted packet length average = 1
Total in-flight flits = 3 (0 measured)
latency change    = 0.0558907
throughput change = 0.0454545
Class 0:
Packet latency average = 18.3733
	minimum = 7
	maximum = 37
Network latency average = 18.3733
	minimum = 7
	maximum = 37
Slowest packet = 976
Flit latency average = 18.3733
	minimum = 7
	maximum = 37
Slowest flit = 976
Fragmentation average = 0
	minimum = 0
	maximum = 0
Injected packet rate average = 0.009
	minimum = 0.004 (at node 1)
	maximum = 0.016 (at node 10)
Accepted packet rate average = 0.009375
	minimum = 0.004 (at node 4)
	maximum = 0.016 (at node 10)
Injected flit rate average = 0.009
	minimum = 0.004 (at node 1)
	maximum = 0.016 (at node 10)
Accepted flit rate average= 0.009375
	minimum = 0.004 (at node 4)
	maximum = 0.016 (at node 10)
Injected packet length average = 1
Accepted packet length average = 1
Total in-flight flits = 0 (0 measured)
latency change    = 0.034932
throughput change = 0.12
Warmed up ...Time used is 1500 cycles
Class 0:
Packet latency average = 19.9143
	minimum = 7
	maximum = 37
Network latency average = 19.9143
	minimum = 7
	maximum = 37
Slowest packet = 1052
Flit latency average = 19.9143
	minimum = 7
	maximum = 37
Slowest flit = 1052
Fragmentation average = 0
	minimum = 0
	maximum = 0
Injected packet rate average = 0.009
	minimum = 0.002 (at node 0)
	maximum = 0.02 (at node 6)
Accepted packet rate average = 0.00875
	minimum = 0.002 (at node 0)
	maximum = 0.02 (at node 9)
Injected flit rate average = 0.009
	minimum = 0.002 (at node 0)
	maximum = 0.02 (at node 6)
Accepted flit rate average= 0.00875
	minimum = 0.002 (at node 0)
	maximum = 0.02 (at node 9)
Injected packet length average = 1
Accepted packet length average = 1
Total in-flight flits = 2 (2 measured)
latency change    = 0.0773792
throughput change = 0.0714286
Class 0:
Packet latency average = 19.604
	minimum = 7
	maximum = 37
Network latency average = 19.604
	minimum = 7
	maximum = 37
Slowest packet = 1052
Flit latency average = 19.604
	minimum = 7
	maximum = 37
Slowest flit = 1052
Fragmentation average = 0
	minimum = 0
	maximum = 0
Injected packet rate average = 0.009625
	minimum = 0.004 (at node 8)
	maximum = 0.016 (at node 4)
Accepted packet rate average = 0.0093125
	minimum = 0.004 (at node 2)
	maximum = 0.016 (at node 1)
Injected flit rate average = 0.009625
	minimum = 0.004 (at node 8)
	maximum = 0.016 (at node 4)
Accepted flit rate average= 0.0093125
	minimum = 0.004 (at node 2)
	maximum = 0.016 (at node 1)
Injected packet length average = 1
Accepted packet length average = 1
Total in-flight flits = 5 (5 measured)
latency change    = 0.0158263
throughput change = 0.0604027
Class 0:
Packet latency average = 19.281
	minimum = 7
	maximum = 37
Network latency average = 19.281
	minimum = 7
	maximum = 37
Slowest packet = 1052
Flit latency average = 19.281
	minimum = 7
	maximum = 37
Slowest flit = 1052
Fragmentation average = 0
	minimum = 0
	maximum = 0
Injected packet rate average = 0.0102083
	minimum = 0.006 (at node 1)
	maximum = 0.016 (at node 4)
Accepted packet rate average = 0.0100833
	minimum = 0.006 (at node 2)
	maximum = 0.0146667 (at node 1)
Injected flit rate average = 0.0102083
	minimum = 0.006 (at node 1)
	maximum = 0.016 (at node 4)
Accepted flit rate average= 0.0100833
	minimum = 0.006 (at node 2)
	maximum = 0.0146667 (at node 1)
Injected packet length average = 1
Accepted packet length average = 1
Total in-flight flits = 3 (3 measured)
latency change    = 0.0167541
throughput change = 0.0764463
Class 0:
Packet latency average = 19.3727
	minimum = 7
	maximum = 37
Network latency average = 19.3727
	minimum = 7
	maximum = 37
Slowest packet = 1052
Flit latency average = 19.3727
	minimum = 7
	maximum = 37
Slowest flit = 1052
Fragmentation average = 0
	minimum = 0
	maximum = 0
Injected packet rate average = 0.0104375
	minimum = 0.007 (at node 1)
	maximum = 0.0145 (at node 4)
Accepted packet rate average = 0.0103125
	minimum = 0.007 (at node 4)
	maximum = 0.0145 (at node 1)
Injected flit rate average = 0.0104375
	minimum = 0.007 (at node 1)
	maximum = 0.0145 (at node 4)
Accepted flit rate average= 0.0103125
	minimum = 0.007 (at node 4)
	maximum = 0.0145 (at node 1)
Injected packet length average = 1
Accepted packet length average = 1
Total in-flight flits = 4 (4 measured)
latency change    = 0.00473529
throughput change = 0.0222222
Class 0:
Packet latency average = 19.3722
	minimum = 7
	maximum = 37
Network latency average = 19.3722
	minimum = 7
	maximum = 37
Slowest packet = 1052
Flit latency average = 19.3722
	minimum = 7
	maximum = 37
Slowest flit = 1052
Fragmentation average = 0
	minimum = 0
	maximum = 0
Injected packet rate average = 0.010175
	minimum = 0.0072 (at node 1)
	maximum = 0.0132 (at node 4)
Accepted packet rate average = 0.010075
	minimum = 0.0068 (at node 4)
	maximum = 0.0132 (at node 1)
Injected flit rate average = 0.010175
	minimum = 0.0072 (at node 1)
	maximum = 0.0132 (at node 4)
Accepted flit rate average= 0.010075
	minimum = 0.0068 (at node 4)
	maximum = 0.0132 (at node 1)
Injected packet length average = 1
Accepted packet length average = 1
Total in-flight flits = 4 (4 measured)
latency change    = 2.67825e-05
throughput change = 0.0235732
Class 0:
Packet latency average = 19.7107
	minimum = 7
	maximum = 37
Network latency average = 19.7107
	minimum = 7
	maximum = 37
Slowest packet = 1052
Flit latency average = 19.7107
	minimum = 7
	maximum = 37
Slowest flit = 1052
Fragmentation average = 0
	minimum = 0
	maximum = 0
Injected packet rate average = 0.00997917
	minimum = 0.00733333 (at node 8)
	maximum = 0.012 (at node 4)
Accepted packet rate average = 0.0099375
	minimum = 0.00733333 (at node 2)
	maximum = 0.012 (at node 1)
Injected flit rate average = 0.00997917
	minimum = 0.00733333 (at node 8)
	maximum = 0.012 (at node 4)
Accepted flit rate average= 0.0099375
	minimum = 0.00733333 (at node 2)
	maximum = 0.012 (at node 1)
Injected packet length average = 1
Accepted packet length average = 1
Total in-flight flits = 2 (2 measured)
latency change    = 0.0171726
throughput change = 0.0138365
Draining all recorded packets ...
Draining remaining packets ...
Time taken is 4546 cycles
Class 0:
Packet latency average = 19.0233
	minimum = 7
	maximum = 38
Network latency average = 19.0233
	minimum = 7
	maximum = 38
Slowest packet = 1588
Flit latency average = 19.0233
	minimum = 7
	maximum = 38
Slowest flit = 1588
Fragmentation average = 0
	minimum = 0
	maximum = 0
Injected packet rate average = 0.011
	minimum = 0.006 (at node 0)
	maximum = 0.02 (at node 2)
Accepted packet rate average = 0.01075
	minimum = 0.004 (at node 14)
	maximum = 0.02 (at node 8)
Injected flit rate average = 0.011
	minimum = 0.006 (at node 0)
	maximum = 0.02 (at node 2)
Accepted flit rate average= 0.01075
	minimum = 0.004 (at node 14)
	maximum = 0.02 (at node 8)
Injected packet length average = 1
Accepted packet length average = 1
Total in-flight flits = 2 (0 measured)
latency change    = 1
throughput change = 1
Class 0:
Packet latency average = 19.1221
	minimum = 7
	maximum = 38
Network latency average = 19.1221
	minimum = 7
	maximum = 38
Slowest packet = 1588
Flit latency average = 19.1221
	minimum = 7
	maximum = 38
Slowest flit = 1588
Fragmentation average = 0
	minimum = 0
	maximum = 0
Injected packet rate average = 0.0110625
	minimum = 0.006 (at node 8)
	maximum = 0.018 (at node 6)
Accepted packet rate average = 0.01075
	minimum = 0.006 (at node 2)
	maximum = 0.017 (at node 9)
Injected flit rate average = 0.0110625
	minimum = 0.006 (at node 8)
	maximum = 0.018 (at node 6)
Accepted flit rate average= 0.01075
	minimum = 0.006 (at node 2)
	maximum = 0.017 (at node 9)
Injected packet length average = 1
Accepted packet length average = 1
Total in-flight flits = 5 (0 measured)
latency change    = 0.00516874
throughput change = 0
Class 0:
Packet latency average = 18.8333
	minimum = 7
	maximum = 37
Network latency average = 18.8333
	minimum = 7
	maximum = 37
Slowest packet = 1726
Flit latency average = 18.8333
	minimum = 7
	maximum = 37
Slowest flit = 1726
Fragmentation average = 0
	minimum = 0
	maximum = 0
Injected packet rate average = 0.008625
	minimum = 0.002 (at node 0)
	maximum = 0.016 (at node 14)
Accepted packet rate average = 0.00825
	minimum = 0.002 (at node 0)
	maximum = 0.014 (at node 4)
Injected flit rate average = 0.008625
	minimum = 0.002 (at node 0)
	maximum = 0.016 (at node 14)
Accepted flit rate average= 0.00825
	minimum = 0.002 (at node 0)
	maximum = 0.014 (at node 4)
Injected packet length average = 1
Accepted packet length average = 1
Total in-flight flits = 8 (0 measured)
latency change    = 0.0153324
throughput change = 0.30303
Warmed up ...Time used is 1500 cycles
Class 0:
Packet latency average = 18.5152
	minimum = 7
	maximum = 37
Network latency average = 18.5152
	minimum = 7
	maximum = 37
Slowest packet = 1784
Flit latency average = 19.1622
	minimum = 7
	maximum = 37
Slowest flit = 1772
Fragmentation average = 0
	minimum = 0
	maximum = 0
Injected packet rate average = 0.008625
	minimum = 0.002 (at node 3)
	maximum = 0.02 (at node 9)
Accepted packet rate average = 0.00925
	minimum = 0.004 (at node 7)
	maximum = 0.016 (at node 6)
Injected flit rate average = 0.008625
	minimum = 0.002 (at node 3)
	maximum = 0.02 (at node 9)
Accepted flit rate average= 0.00925
	minimum = 0.004 (at node 7)
	maximum = 0.016 (at node 6)
Injected packet length average = 1
Accepted packet length average = 1
Total in-flight flits = 3 (3 measured)
latency change    = 0.0171849
throughput change = 0.108108
Class 0:
Packet latency average = 19.7717
	minimum = 7
	maximum = 37
Network latency average = 19.7717
	minimum = 7
	maximum = 37
Slowest packet = 1784
Flit latency average = 20.0519
	minimum = 7
	maximum = 37
Slowest flit = 1772
Fragmentation average = 0
	minimum = 0
	maximum = 0
Injected packet rate average = 0.00825
	minimum = 0.005 (at node 3)
	maximum = 0.017 (at node 9)
Accepted packet rate average = 0.0084375
	minimum = 0.005 (at node 5)
	maximum = 0.017 (at node 6)
Injected flit rate average = 0.00825
	minimum = 0.005 (at node 3)
	maximum = 0.017 (at node 9)
Accepted flit rate average= 0.0084375
	minimum = 0.005 (at node 5)
	maximum = 0.017 (at node 6)
Injected packet length average = 1
Accepted packet length average = 1
Total in-flight flits = 5 (5 measured)
latency change    = 0.0635507
throughput change = 0.0962963
Class 0:
Packet latency average = 20.265
	minimum = 7
	maximum = 37
Network latency average = 20.265
	minimum = 7
	maximum = 37
Slowest packet = 1784
Flit latency average = 20.4279
	minimum = 7
	maximum = 37
Slowest flit = 1772
Fragmentation average = 0
	minimum = 0
	maximum = 0
Injected packet rate average = 0.0085
	minimum = 0.00533333 (at node 0)
	maximum = 0.014 (at node 9)
Accepted packet rate average = 0.00866667
	minimum = 0.00466667 (at node 0)
	maximum = 0.0133333 (at node 6)
Injected flit rate average = 0.0085
	minimum = 0.00533333 (at node 0)
	maximum = 0.014 (at node 9)
Accepted flit rate average= 0.00866667
	minimum = 0.00466667 (at node 0)
	maximum = 0.0133333 (at node 6)
Injected packet length average = 1
Accepted packet length average = 1
Total in-flight flits = 4 (4 measured)
latency change    = 0.0243448
throughput change = 0.0264423
Class 0:
Packet latency average = 20.1483
	minimum = 7
	maximum = 37
Network latency average = 20.1483
	minimum = 7
	maximum = 37
Slowest packet = 1784
Flit latency average = 20.2651
	minimum = 7
	maximum = 37
Slowest flit = 1772
Fragmentation average = 0
	minimum = 0
	maximum = 0
Injected packet rate average = 0.0091875
	minimum = 0.0055 (at node 0)
	maximum = 0.0125 (at node 8)
Accepted packet rate average = 0.0093125
	minimum = 0.0055 (at node 0)
	maximum = 0.013 (at node 2)
Injected flit rate average = 0.0091875
	minimum = 0.0055 (at node 0)
	maximum = 0.0125 (at node 8)
Accepted flit rate average= 0.0093125
	minimum = 0.0055 (at node 0)
	maximum = 0.013 (at node 2)
Injected packet length average = 1
Accepted packet length average = 1
Total in-flight flits = 4 (4 measured)
latency change    = 0.00579326
throughput change = 0.0693512
Class 0:
Packet latency average = 19.9203
	minimum = 7
	maximum = 37
Network latency average = 19.9203
	minimum = 7
	maximum = 37
Slowest packet = 1784
Flit latency average = 20.0188
	minimum = 7
	maximum = 37
Slowest flit = 1772
Fragmentation average = 0
	minimum = 0
	maximum = 0
Injected packet rate average = 0.0091
	minimum = 0.006 (at node 14)
	maximum = 0.0116 (at node 4)
Accepted packet rate average = 0.0093
	minimum = 0.0064 (at node 0)
	maximum = 0.012 (at node 1)
Injected flit rate average = 0.0091
	minimum = 0.006 (at node 14)
	maximum = 0.0116 (at node 4)
Accepted flit rate average= 0.0093
	minimum = 0.0064 (at node 0)
	maximum = 0.012 (at node 1)
Injected packet length average = 1
Accepted packet length average = 1
Total in-flight flits = 0 (0 measured)
latency change    = 0.0114429
throughput change = 0.00134409
Class 0:
Packet latency average = 19.8981
	minimum = 7
	maximum = 37
Network latency average = 19.8981
	minimum = 7
	maximum = 37
Slowest packet = 1784
Flit latency average = 19.9837
	minimum = 7
	maximum = 37
Slowest flit = 1772
Fragmentation average = 0
	minimum = 0
	maximum = 0
Injected packet rate average = 0.0088125
	minimum = 0.00666667 (at node 0)
	maximum = 0.0106667 (at node 4)
Accepted packet rate average = 0.00895833
	minimum = 0.00666667 (at node 0)
	maximum = 0.011 (at node 1)
Injected flit rate average = 0.0088125
	minimum = 0.00666667 (at node 0)
	maximum = 0.0106667 (at node 4)
Accepted flit rate average= 0.00895833
	minimum = 0.00666667 (at node 0)
	maximum = 0.011 (at node 1)
Injected packet length average = 1
Accepted packet length average = 1
Total in-flight flits = 1 (1 measured)
latency change    = 0.00111696
throughput change = 0.0381395
Class 0:
Packet latency average = 19.5746
	minimum = 7
	maximum = 37
Network latency average = 19.5746
	minimum = 7
	maximum = 37
Slowest packet = 1784
Flit latency average = 19.6528
	minimum = 7
	maximum = 37
Slowest flit = 1772
Fragmentation average = 0
	minimum = 0
	maximum = 0
Injected packet rate average = 0.00889286
	minimum = 0.00657143 (at node 14)
	maximum = 0.0108571 (at node 8)
Accepted packet rate average = 0.009
	minimum = 0.00685714 (at node 0)
	maximum = 0.0108571 (at node 1)
Injected flit rate average = 0.00889286
	minimum = 0.00657143 (at node 14)
	maximum = 0.0108571 (at node 8)
Accepted flit rate average= 0.009
	minimum = 0.00685714 (at node 0)
	maximum = 0.0108571 (at node 1)
Injected packet length average = 1
Accepted packet length average = 1
Total in-flight flits = 2 (2 measured)
latency change    = 0.0165269
throughput change = 0.00462963
Draining all recorded packets ...
Draining remaining packets ...
Time taken is 5040 cycles
Class 0:
Packet latency average = 19.1892
	minimum = 7
	maximum = 37
Network latency average = 19.1892
	minimum = 7
	maximum = 37
Slowest packet = 2295
Flit latency average = 19.1892
	minimum = 7
	maximum = 37
Slowest flit = 2295
Fragmentation average = 0
	minimum = 0
	maximum = 0
Injected packet rate average = 0.009625
	minimum = 0 (at node 5)
	maximum = 0.016 (at node 14)
Accepted packet rate average = 0.00925
	minimum = 0 (at node 5)
	maximum = 0.016 (at node 11)
Injected flit rate average = 0.009625
	minimum = 0 (at node 5)
	maximum = 0.016 (at node 14)
Accepted flit rate average= 0.00925
	minimum = 0 (at node 5)
	maximum = 0.016 (at node 11)
Injected packet length average = 1
Accepted packet length average = 1
Total in-flight flits = 3 (0 measured)
latency change    = 1
throughput change = 1
Class 0:
Packet latency average = 19.5096
	minimum = 7
	maximum = 38
Network latency average = 19.5096
	minimum = 7
	maximum = 38
Slowest packet = 2385
Flit latency average = 19.5096
	minimum = 7
	maximum = 38
Slowest flit = 2385
Fragmentation average = 0
	minimum = 0
	maximum = 0
Injected packet rate average = 0.009875
	minimum = 0.005 (at node 5)
	maximum = 0.013 (at node 0)
Accepted packet rate average = 0.0098125
	minimum = 0.005 (at node 5)
	maximum = 0.013 (at node 0)
Injected flit rate average = 0.009875
	minimum = 0.005 (at node 5)
	maximum = 0.013 (at node 0)
Accepted flit rate average= 0.0098125
	minimum = 0.005 (at node 5)
	maximum = 0.013 (at node 0)
Injected packet length average = 1
Accepted packet length average = 1
Total in-flight flits = 1 (0 measured)
latency change    = 0.0164209
throughput change = 0.0573248
Class 0:
Packet latency average = 20.5132
	minimum = 7
	maximum = 37
Network latency average = 20.5132
	minimum = 7
	maximum = 37
Slowest packet = 2439
Flit latency average = 20.5132
	minimum = 7
	maximum = 37
Slowest flit = 2439
Fragmentation average = 0
	minimum = 0
	maximum = 0
Injected packet rate average = 0.009375
	minimum = 0.004 (at node 9)
	maximum = 0.014 (at node 1)
Accepted packet rate average = 0.0095
	minimum = 0.004 (at node 6)
	maximum = 0.014 (at node 4)
Injected flit rate average = 0.009375
	minimum = 0.004 (at node 9)
	maximum = 0.014 (at node 1)
Accepted flit rate average= 0.0095
	minimum = 0.004 (at node 6)
	maximum = 0.014 (at node 4)
Injected packet length average = 1
Accepted packet length average = 1
Total in-flight flits = 0 (0 measured)
latency change    = 0.0489249
throughput change = 0.0328947
Warmed up ...Time used is 1500 cycles
Class 0:
Packet latency average = 17.2466
	minimum = 7
	maximum = 37
Network latency average = 17.2466
	minimum = 7
	maximum = 37
Slowest packet = 2523
Flit latency average = 17.2466
	minimum = 7
	maximum = 37
Slowest flit = 2523
Fragmentation average = 0
	minimum = 0
	maximum = 0
Injected packet rate average = 0.00925
	minimum = 0.004 (at node 0)
	maximum = 0.016 (at node 15)
Accepted packet rate average = 0.009125
	minimum = 0.004 (at node 0)
	maximum = 0.016 (at node 15)
Injected flit rate average = 0.00925
	minimum = 0.004 (at node 0)
	maximum = 0.016 (at node 15)
Accepted flit rate average= 0.009125
	minimum = 0.004 (at node 0)
	maximum = 0.016 (at node 15)
Injected packet length average = 1
Accepted packet length average = 1
Total in-flight flits = 1 (1 measured)
latency change    = 0.189405
throughput change = 0.0410959
Class 0:
Packet latency average = 19.0606
	minimum = 7
	maximum = 38
Network latency average = 19.0606
	minimum = 7
	maximum = 38
Slowest packet = 2656
Flit latency average = 19.0606
	minimum = 7
	maximum = 38
Slowest flit = 2656
Fragmentation average = 0
	minimum = 0
	maximum = 0
Injected packet rate average = 0.0104375
	minimum = 0.006 (at node 3)
	maximum = 0.016 (at node 9)
Accepted packet rate average = 0.0103125
	minimum = 0.006 (at node 12)
	maximum = 0.016 (at node 6)
Injected flit rate average = 0.0104375
	minimum = 0.006 (at node 3)
	maximum = 0.016 (at node 9)
Accepted flit rate average= 0.0103125
	minimum = 0.006 (at node 12)
	maximum = 0.016 (at node 6)
Injected packet length average = 1
Accepted packet length average = 1
Total in-flight flits = 2 (2 measured)
latency change    = 0.0951717
throughput change = 0.115152
Class 0:
Packet latency average = 19
	minimum = 7
	maximum = 38
Network latency average = 19
	minimum = 7
	maximum = 38
Slowest packet = 2656
Flit latency average = 19
	minimum = 7
	maximum = 38
Slowest flit = 2656
Fragmentation average = 0
	minimum = 0
	maximum = 0
Injected packet rate average = 0.00983333
	minimum = 0.006 (at node 3)
	maximum = 0.014 (at node 15)
Accepted packet rate average = 0.00979167
	minimum = 0.006 (at node 12)
	maximum = 0.014 (at node 15)
Injected flit rate average = 0.00983333
	minimum = 0.006 (at node 3)
	maximum = 0.014 (at node 15)
Accepted flit rate average= 0.00979167
	minimum = 0.006 (at node 12)
	maximum = 0.014 (at node 15)
Injected packet length average = 1
Accepted packet length average = 1
Total in-flight flits = 1 (1 measured)
latency change    = 0.00318979
throughput change = 0.0531915
Class 0:
Packet latency average = 18.6614
	minimum = 7
	maximum = 38
Network latency average = 18.6614
	minimum = 7
	maximum = 38
Slowest packet = 2656
Flit latency average = 18.6614
	minimum = 7
	maximum = 38
Slowest flit = 2656
Fragmentation average = 0
	minimum = 0
	maximum = 0
Injected packet rate average = 0.010125
	minimum = 0.006 (at node 8)
	maximum = 0.0135 (at node 10)
Accepted packet rate average = 0.00996875
	minimum = 0.006 (at node 2)
	maximum = 0.0135 (at node 10)
Injected flit rate average = 0.010125
	minimum = 0.006 (at node 8)
	maximum = 0.0135 (at node 10)
Accepted flit rate average= 0.00996875
	minimum = 0.006 (at node 2)
	maximum = 0.0135 (at node 10)
Injected packet length average = 1
Accepted packet length average = 1
Total in-flight flits = 5 (5 measured)
latency change    = 0.0181421
throughput change = 0.0177638
Class 0:
Packet latency average = 19.0025
	minimum = 7
	maximum = 38
Network latency average = 19.0025
	minimum = 7
	maximum = 38
Slowest packet = 2656
Flit latency average = 19.0025
	minimum = 7
	maximum = 38
Slowest flit = 2656
Fragmentation average = 0
	minimum = 0
	maximum = 0
Injected packet rate average = 0.01
	minimum = 0.006 (at node 8)
	maximum = 0.0132 (at node 15)
Accepted packet rate average = 0.009875
	minimum = 0.006 (at node 2)
	maximum = 0.0128 (at node 11)
Injected flit rate average = 0.01
	minimum = 0.006 (at node 8)
	maximum = 0.0132 (at node 15)
Accepted flit rate average= 0.009875
	minimum = 0.006 (at node 2)
	maximum = 0.0128 (at node 11)
Injected packet length average = 1
Accepted packet length average = 1
Total in-flight flits = 5 (5 measured)
latency change    = 0.0179497
throughput change = 0.00949367
Class 0:
Packet latency average = 19.1502
	minimum = 7
	maximum = 38
Network latency average = 19.1502
	minimum = 7
	maximum = 38
Slowest packet = 2656
Flit latency average = 19.1502
	minimum = 7
	maximum = 38
Slowest flit = 2656
Fragmentation average = 0
	minimum = 0
	maximum = 0
Injected packet rate average = 0.0101875
	minimum = 0.00666667 (at node 8)
	maximum = 0.014 (at node 7)
Accepted packet rate average = 0.010125
	minimum = 0.00666667 (at node 2)
	maximum = 0.0133333 (at node 13)
Injected flit rate average = 0.0101875
	minimum = 0.00666667 (at node 8)
	maximum = 0.014 (at node 7)
Accepted flit rate average= 0.010125
	minimum = 0.00666667 (at node 2)
	maximum = 0.0133333 (at node 13)
Injected packet length average = 1
Accepted packet length average = 1
Total in-flight flits = 3 (3 measured)
latency change    = 0.00771136
throughput change = 0.0246914
Draining all recorded packets ...
Draining remaining packets ...
Time taken is 4531 cycles
Class 0:
Packet latency average = 17.9412
	minimum = 7
	maximum = 37
Network latency average = 17.9412
	minimum = 7
	maximum = 37
Slowest packet = 3006
Flit latency average = 17.9412
	minimum = 7
	maximum = 37
Slowest flit = 3006
Fragmentation average = 0
	minimum = 0
	maximum = 0
Injected packet rate average = 0.01075
	minimum = 0.004 (at node 3)
	maximum = 0.016 (at node 4)
Accepted packet rate average = 0.010625
	minimum = 0.004 (at node 12)
	maximum = 0.016 (at node 1)
Injected flit rate average = 0.01075
	minimum = 0.004 (at node 3)
	maximum = 0.016 (at node 4)
Accepted flit rate average= 0.010625
	minimum = 0.004 (at node 12)
	maximum = 0.016 (at node 1)
Injected packet length average = 1
Accepted packet length average = 1
Total in-flight flits = 1 (0 measured)
latency change    = 1
throughput change = 1
Class 0:
Packet latency average = 18.2222
	minimum = 7
	maximum = 37
Network latency average = 18.2222
	minimum = 7
	maximum = 37
Slowest packet = 3006
Flit latency average = 18.2222
	minimum = 7
	maximum = 37
Slowest flit = 3006
Fragmentation average = 0
	minimum = 0
	maximum = 0
Injected packet rate average = 0.0103125
	minimum = 0.003 (at node 3)
	maximum = 0.019 (at node 4)
Accepted packet rate average = 0.010125
	minimum = 0.003 (at node 12)
	maximum = 0.019 (at node 1)
Injected flit rate average = 0.0103125
	minimum = 0.003 (at node 3)
	maximum = 0.019 (at node 4)
Accepted flit rate average= 0.010125
	minimum = 0.003 (at node 12)
	maximum = 0.019 (at node 1)
Injected packet length average = 1
Accepted packet length average = 1
Total in-flight flits = 3 (0 measured)
latency change    = 0.0154232
throughput change = 0.0493827
Class 0:
Packet latency average = 18.7024
	minimum = 7
	maximum = 37
Network latency average = 18.7024
	minimum = 7
	maximum = 37
Slowest packet = 3180
Flit latency average = 18.7024
	minimum = 7
	maximum = 37
Slowest flit = 3180
Fragmentation average = 0
	minimum = 0
	maximum = 0
Injected packet rate average = 0.01075
	minimum = 0 (at node 0)
	maximum = 0.018 (at node 5)
Accepted packet rate average = 0.0105
	minimum = 0 (at node 0)
	maximum = 0.018 (at node 5)
Injected flit rate average = 0.01075
	minimum = 0 (at node 0)
	maximum = 0.018 (at node 5)
Accepted flit rate average= 0.0105
	minimum = 0 (at node 0)
	maximum = 0.018 (at node 5)
Injected packet length average = 1
Accepted packet length average = 1
Total in-flight flits = 5 (0 measured)
latency change    = 0.0256737
throughput change = 0.0357143
Warmed up ...Time used is 1500 cycles
Class 0:
Packet latency average = 20.5079
	minimum = 7
	maximum = 38
Network latency average = 20.5079
	minimum = 7
	maximum = 38
Slowest packet = 3304
Flit latency average = 20.5441
	minimum = 7
	maximum = 38
Slowest flit = 3304
Fragmentation average = 0
	minimum = 0
	maximum = 0
Injected packet rate average = 0.008375
	minimum = 0.004 (at node 4)
	maximum = 0.016 (at node 13)
Accepted packet rate average = 0.0085
	minimum = 0.004 (at node 9)
	maximum = 0.014 (at node 13)
Injected flit rate average = 0.008375
	minimum = 0.004 (at node 4)
	maximum = 0.016 (at node 13)
Accepted flit rate average= 0.0085
	minimum = 0.004 (at node 9)
	maximum = 0.014 (at node 13)
Injected packet length average = 1
Accepted packet length average = 1
Total in-flight flits = 4 (4 measured)
latency change    = 0.0880418
throughput change = 0.235294
Class 0:
Packet latency average = 20.3176
	minimum = 7
	maximum = 38
Network latency average = 20.3176
	minimum = 7
	maximum = 38
Slowest packet = 3304
Flit latency average = 20.3399
	minimum = 7
	maximum = 38
Slowest flit = 3304
Fragmentation average = 0
	minimum = 0
	maximum = 0
Injected packet rate average = 0.0095
	minimum = 0.004 (at node 6)
	maximum = 0.017 (at node 13)
Accepted packet rate average = 0.0095625
	minimum = 0.004 (at node 9)
	maximum = 0.016 (at node 7)
Injected flit rate average = 0.0095
	minimum = 0.004 (at node 6)
	maximum = 0.017 (at node 13)
Accepted flit rate average= 0.0095625
	minimum = 0.004 (at node 9)
	maximum = 0.016 (at node 7)
Injected packet length average = 1
Accepted packet length average = 1
Total in-flight flits = 4 (4 measured)
latency change    = 0.00936967
throughput change = 0.111111
Class 0:
Packet latency average = 20.6417
	minimum = 7
	maximum = 38
Network latency average = 20.6417
	minimum = 7
	maximum = 38
Slowest packet = 3304
Flit latency average = 20.649
	minimum = 7
	maximum = 38
Slowest flit = 3304
Fragmentation average = 0
	minimum = 0
	maximum = 0
Injected packet rate average = 0.010125
	minimum = 0.00666667 (at node 0)
	maximum = 0.0173333 (at node 13)
Accepted packet rate average = 0.0102083
	minimum = 0.006 (at node 9)
	maximum = 0.0166667 (at node 7)
Injected flit rate average = 0.010125
	minimum = 0.00666667 (at node 0)
	maximum = 0.0173333 (at node 13)
Accepted flit rate average= 0.0102083
	minimum = 0.006 (at node 9)
	maximum = 0.0166667 (at node 7)
Injected packet length average = 1
Accepted packet length average = 1
Total in-flight flits = 3 (3 measured)
latency change    = 0.0157012
throughput change = 0.0632653
Class 0:
Packet latency average = 20.3123
	minimum = 7
	maximum = 38
Network latency average = 20.3123
	minimum = 7
	maximum = 38
Slowest packet = 3304
Flit latency average = 20.323
	minimum = 7
	maximum = 38
Slowest flit = 3304
Fragmentation average = 0
	minimum = 0
	maximum = 0
Injected packet rate average = 0.01
	minimum = 0.0065 (at node 14)
	maximum = 0.0145 (at node 13)
Accepted packet rate average = 0.0100625
	minimum = 0.0065 (at node 11)
	maximum = 0.0145 (at node 7)
Injected flit rate average = 0.01
	minimum = 0.0065 (at node 14)
	maximum = 0.0145 (at node 13)
Accepted flit rate average= 0.0100625
	minimum = 0.0065 (at node 11)
	maximum = 0.0145 (at node 7)
Injected packet length average = 1
Accepted packet length average = 1
Total in-flight flits = 3 (3 measured)
latency change    = 0.016215
throughput change = 0.0144928
Class 0:
Packet latency average = 20.0408
	minimum = 7
	maximum = 40
Network latency average = 20.0408
	minimum = 7
	maximum = 40
Slowest packet = 3594
Flit latency average = 20.0529
	minimum = 7
	maximum = 40
Slowest flit = 3594
Fragmentation average = 0
	minimum = 0
	maximum = 0
Injected packet rate average = 0.0099
	minimum = 0.0056 (at node 14)
	maximum = 0.0124 (at node 13)
Accepted packet rate average = 0.009925
	minimum = 0.0056 (at node 11)
	maximum = 0.0124 (at node 7)
Injected flit rate average = 0.0099
	minimum = 0.0056 (at node 14)
	maximum = 0.0124 (at node 13)
Accepted flit rate average= 0.009925
	minimum = 0.0056 (at node 11)
	maximum = 0.0124 (at node 7)
Injected packet length average = 1
Accepted packet length average = 1
Total in-flight flits = 4 (4 measured)
latency change    = 0.0135467
throughput change = 0.0138539
Class 0:
Packet latency average = 19.8942
	minimum = 7
	maximum = 40
Network latency average = 19.8942
	minimum = 7
	maximum = 40
Slowest packet = 3594
Flit latency average = 19.9055
	minimum = 7
	maximum = 40
Slowest flit = 3594
Fragmentation average = 0
	minimum = 0
	maximum = 0
Injected packet rate average = 0.0101042
	minimum = 0.007 (at node 14)
	maximum = 0.0126667 (at node 13)
Accepted packet rate average = 0.0101458
	minimum = 0.007 (at node 11)
	maximum = 0.0126667 (at node 7)
Injected flit rate average = 0.0101042
	minimum = 0.007 (at node 14)
	maximum = 0.0126667 (at node 13)
Accepted flit rate average= 0.0101458
	minimum = 0.007 (at node 11)
	maximum = 0.0126667 (at node 7)
Injected packet length average = 1
Accepted packet length average = 1
Total in-flight flits = 3 (3 measured)
latency change    = 0.00737026
throughput change = 0.0217659
Draining all recorded packets ...
Draining remaining packets ...
Time taken is 4551 cycles
Class 0:
Packet latency average = 21.6197
	minimum = 7
	maximum = 37
Network latency average = 21.6197
	minimum = 7
	maximum = 37
Slowest packet = 3749
Flit latency average = 21.6197
	minimum = 7
	maximum = 37
Slowest flit = 3749
Fragmentation average = 0
	minimum = 0
	maximum = 0
Injected packet rate average = 0.009375
	minimum = 0.004 (at node 9)
	maximum = 0.014 (at node 1)
Accepted packet rate average = 0.008875
	minimum = 0.004 (at node 6)
	maximum = 0.014 (at node 4)
Injected flit rate average = 0.009375
	minimum = 0.004 (at node 9)
	maximum = 0.014 (at node 1)
Accepted flit rate average= 0.008875
	minimum = 0.004 (at node 6)
	maximum = 0.014 (at node 4)
Injected packet length average = 1
Accepted packet length average = 1
Total in-flight flits = 4 (0 measured)
latency change    = 1
throughput change = 1
Class 0:
Packet latency average = 20.3423
	minimum = 7
	maximum = 37
Network latency average = 20.3423
	minimum = 7
	maximum = 37
Slowest packet = 3749
Flit latency average = 20.3423
	minimum = 7
	maximum = 37
Slowest flit = 3749
Fragmentation average = 0
	minimum = 0
	maximum = 0
Injected packet rate average = 0.0096875
	minimum = 0.003 (at node 9)
	maximum = 0.016 (at node 1)
Accepted packet rate average = 0.0093125
	minimum = 0.003 (at node 6)
	maximum = 0.015 (at node 4)
Injected flit rate average = 0.0096875
	minimum = 0.003 (at node 9)
	maximum = 0.016 (at node 1)
Accepted flit rate average= 0.0093125
	minimum = 0.003 (at node 6)
	maximum = 0.015 (at node 4)
Injected packet length average = 1
Accepted packet length average = 1
Total in-flight flits = 6 (0 measured)
latency change    = 0.0627971
throughput change = 0.0469799
Class 0:
Packet latency average = 18.2973
	minimum = 7
	maximum = 39
Network latency average = 18.2973
	minimum = 7
	maximum = 39
Slowest packet = 3918
Flit latency average = 18.2973
	minimum = 7
	maximum = 39
Slowest flit = 3918
Fragmentation average = 0
	minimum = 0
	maximum = 0
Injected packet rate average = 0.00875
	minimum = 0.004 (at node 8)
	maximum = 0.016 (at node 5)
Accepted packet rate average = 0.00925
	minimum = 0.004 (at node 2)
	maximum = 0.016 (at node 5)
Injected flit rate average = 0.00875
	minimum = 0.004 (at node 8)
	maximum = 0.016 (at node 5)
Accepted flit rate average= 0.00925
	minimum = 0.004 (at node 2)
	maximum = 0.016 (at node 5)
Injected packet length average = 1
Accepted packet length average = 1
Total in-flight flits = 2 (0 measured)
latency change    = 0.111764
throughput change = 0.00675676
Warmed up ...Time used is 1500 cycles
Class 0:
Packet latency average = 19.4375
	minimum = 7
	maximum = 37
Network latency average = 19.4375
	minimum = 7
	maximum = 37
Slowest packet = 3972
Flit latency average = 19.6667
	minimum = 7
	maximum = 37
Slowest flit = 3970
Fragmentation average = 0
	minimum = 0
	maximum = 0
Injected packet rate average = 0.00875
	minimum = 0.002 (at node 4)
	maximum = 0.018 (at node 10)
Accepted packet rate average = 0.00825
	minimum = 0.002 (at node 1)
	maximum = 0.018 (at node 10)
Injected flit rate average = 0.00875
	minimum = 0.002 (at node 4)
	maximum = 0.018 (at node 10)
Accepted flit rate average= 0.00825
	minimum = 0.002 (at node 1)
	maximum = 0.018 (at node 10)
Injected packet length average = 1
Accepted packet length average = 1
Total in-flight flits = 6 (6 measured)
latency change    = 0.0586599
throughput change = 0.121212
Class 0:
Packet latency average = 19.7376
	minimum = 7
	maximum = 37
Network latency average = 19.7376
	minimum = 7
	maximum = 37
Slowest packet = 3972
Flit latency average = 19.8392
	minimum = 7
	maximum = 37
Slowest flit = 3970
Fragmentation average = 0
	minimum = 0
	maximum = 0
Injected packet rate average = 0.009125
	minimum = 0.005 (at node 4)
	maximum = 0.017 (at node 10)
Accepted packet rate average = 0.0089375
	minimum = 0.005 (at node 1)
	maximum = 0.017 (at node 10)
Injected flit rate average = 0.009125
	minimum = 0.005 (at node 4)
	maximum = 0.017 (at node 10)
Accepted flit rate average= 0.0089375
	minimum = 0.005 (at node 1)
	maximum = 0.017 (at node 10)
Injected packet length average = 1
Accepted packet length average = 1
Total in-flight flits = 5 (5 measured)
latency change    = 0.0152039
throughput change = 0.0769231
Class 0:
Packet latency average = 19.8529
	minimum = 7
	maximum = 37
Network latency average = 19.8529
	minimum = 7
	maximum = 37
Slowest packet = 3972
Flit latency average = 19.9125
	minimum = 7
	maximum = 37
Slowest flit = 3970
Fragmentation average = 0
	minimum = 0
	maximum = 0
Injected packet rate average = 0.0100833
	minimum = 0.00666667 (at node 15)
	maximum = 0.016 (at node 10)
Accepted packet rate average = 0.01
	minimum = 0.00666667 (at node 15)
	maximum = 0.016 (at node 10)
Injected flit rate average = 0.0100833
	minimum = 0.00666667 (at node 15)
	maximum = 0.016 (at node 10)
Accepted flit rate average= 0.01
	minimum = 0.00666667 (at node 15)
	maximum = 0.016 (at node 10)
Injected packet length average = 1
Accepted packet length average = 1
Total in-flight flits = 4 (4 measured)
latency change    = 0.00581035
throughput change = 0.10625
Class 0:
Packet latency average = 20.4421
	minimum = 7
	maximum = 42
Network latency average = 20.4421
	minimum = 7
	maximum = 42
Slowest packet = 4235
Flit latency average = 20.4818
	minimum = 7
	maximum = 42
Slowest flit = 4235
Fragmentation average = 0
	minimum = 0
	maximum = 0
Injected packet rate average = 0.0103125
	minimum = 0.0065 (at node 15)
	maximum = 0.0165 (at node 3)
Accepted packet rate average = 0.0103125
	minimum = 0.0065 (at node 15)
	maximum = 0.0165 (at node 12)
Injected flit rate average = 0.0103125
	minimum = 0.0065 (at node 15)
	maximum = 0.0165 (at node 3)
Accepted flit rate average= 0.0103125
	minimum = 0.0065 (at node 15)
	maximum = 0.0165 (at node 12)
Injected packet length average = 1
Accepted packet length average = 1
Total in-flight flits = 2 (2 measured)
latency change    = 0.0288196
throughput change = 0.030303
Class 0:
Packet latency average = 20.1896
	minimum = 7
	maximum = 42
Network latency average = 20.1896
	minimum = 7
	maximum = 42
Slowest packet = 4235
Flit latency average = 20.2217
	minimum = 7
	maximum = 42
Slowest flit = 4235
Fragmentation average = 0
	minimum = 0
	maximum = 0
Injected packet rate average = 0.010625
	minimum = 0.0072 (at node 4)
	maximum = 0.016 (at node 7)
Accepted packet rate average = 0.0106
	minimum = 0.0072 (at node 1)
	maximum = 0.016 (at node 13)
Injected flit rate average = 0.010625
	minimum = 0.0072 (at node 4)
	maximum = 0.016 (at node 7)
Accepted flit rate average= 0.0106
	minimum = 0.0072 (at node 1)
	maximum = 0.016 (at node 13)
Injected packet length average = 1
Accepted packet length average = 1
Total in-flight flits = 3 (3 measured)
latency change    = 0.0125064
throughput change = 0.0271226
Class 0:
Packet latency average = 20.3533
	minimum = 7
	maximum = 42
Network latency average = 20.3533
	minimum = 7
	maximum = 42
Slowest packet = 4235
Flit latency average = 20.3797
	minimum = 7
	maximum = 42
Slowest flit = 4235
Fragmentation average = 0
	minimum = 0
	maximum = 0
Injected packet rate average = 0.0104792
	minimum = 0.007 (at node 0)
	maximum = 0.0156667 (at node 7)
Accepted packet rate average = 0.0104792
	minimum = 0.007 (at node 0)
	maximum = 0.0156667 (at node 13)
Injected flit rate average = 0.0104792
	minimum = 0.007 (at node 0)
	maximum = 0.0156667 (at node 7)
Accepted flit rate average= 0.0104792
	minimum = 0.007 (at node 0)
	maximum = 0.0156667 (at node 13)
Injected packet length average = 1
Accepted packet length average = 1
Total in-flight flits = 2 (2 measured)
latency change    = 0.0080439
throughput change = 0.0115308
Draining all recorded packets ...
Draining remaining packets ...
Time taken is 4548 cycles
Class 0:
Packet latency average = 18.3699
	minimum = 7
	maximum = 37
Network latency average = 18.3699
	minimum = 7
	maximum = 37
Slowest packet = 4484
Flit latency average = 18.3699
	minimum = 7
	maximum = 37
Slowest flit = 4484
Fragmentation average = 0
	minimum = 0
	maximum = 0
Injected packet rate average = 0.00975
	minimum = 0.004 (at node 13)
	maximum = 0.016 (at node 10)
Accepted packet rate average = 0.009125
	minimum = 0.004 (at node 3)
	maximum = 0.016 (at node 10)
Injected flit rate average = 0.00975
	minimum = 0.004 (at node 13)
	maximum = 0.016 (at node 10)
Accepted flit rate average= 0.009125
	minimum = 0.004 (at node 3)
	maximum = 0.016 (at node 10)
Injected packet length average = 1
Accepted packet length average = 1
Total in-flight flits = 5 (0 measured)
latency change    = 1
throughput change = 1
Class 0:
Packet latency average = 20.2781
	minimum = 7
	maximum = 38
Network latency average = 20.2781
	minimum = 7
	maximum = 38
Slowest packet = 4555
Flit latency average = 20.2781
	minimum = 7
	maximum = 38
Slowest flit = 4555
Fragmentation average = 0
	minimum = 0
	maximum = 0
Injected packet rate average = 0.009625
	minimum = 0.003 (at node 5)
	maximum = 0.016 (at node 9)
Accepted packet rate average = 0.0094375
	minimum = 0.003 (at node 5)
	maximum = 0.016 (at node 6)
Injected flit rate average = 0.009625
	minimum = 0.003 (at node 5)
	maximum = 0.016 (at node 9)
Accepted flit rate average= 0.0094375
	minimum = 0.003 (at node 5)
	maximum = 0.016 (at node 6)
Injected packet length average = 1
Accepted packet length average = 1
Total in-flight flits = 3 (0 measured)
latency change    = 0.0941054
throughput change = 0.0331126
Class 0:
Packet latency average = 17.5
	minimum = 7
	maximum = 37
Network latency average = 17.5
	minimum = 7
	maximum = 37
Slowest packet = 4625
Flit latency average = 17.5
	minimum = 7
	maximum = 37
Slowest flit = 4625
Fragmentation average = 0
	minimum = 0
	maximum = 0
Injected packet rate average = 0.011
	minimum = 0.002 (at node 3)
	maximum = 0.02 (at node 6)
Accepted packet rate average = 0.0105
	minimum = 0.002 (at node 1)
	maximum = 0.02 (at node 9)
Injected flit rate average = 0.011
	minimum = 0.002 (at node 3)
	maximum = 0.02 (at node 6)
Accepted flit rate average= 0.0105
	minimum = 0.002 (at node 1)
	maximum = 0.02 (at node 9)
Injected packet length average = 1
Accepted packet length average = 1
Total in-flight flits = 7 (0 measured)
latency change    = 0.158751
throughput change = 0.10119
Warmed up ...Time used is 1500 cycles
Class 0:
Packet latency average = 21.0964
	minimum = 7
	maximum = 37
Network latency average = 21.0964
	minimum = 7
	maximum = 37
Slowest packet = 4723
Flit latency average = 21.4778
	minimum = 7
	maximum = 37
Slowest flit = 4711
Fragmentation average = 0
	minimum = 0
	maximum = 0
Injected packet rate average = 0.0105
	minimum = 0.004 (at node 6)
	maximum = 0.016 (at node 3)
Accepted packet rate average = 0.01125
	minimum = 0.002 (at node 9)
	maximum = 0.018 (at node 11)
Injected flit rate average = 0.0105
	minimum = 0.004 (at node 6)
	maximum = 0.016 (at node 3)
Accepted flit rate average= 0.01125
	minimum = 0.002 (at node 9)
	maximum = 0.018 (at node 11)
Injected packet length average = 1
Accepted packet length average = 1
Total in-flight flits = 1 (1 measured)
latency change    = 0.170474
throughput change = 0.0666667
Class 0:
Packet latency average = 20.201
	minimum = 7
	maximum = 37
Network latency average = 20.201
	minimum = 7
	maximum = 37
Slowest packet = 4723
Flit latency average = 20.403
	minimum = 7
	maximum = 37
Slowest flit = 4711
Fragmentation average = 0
	minimum = 0
	maximum = 0
Injected packet rate average = 0.0124375
	minimum = 0.009 (at node 1)
	maximum = 0.018 (at node 0)
Accepted packet rate average = 0.0125625
	minimum = 0.008 (at node 4)
	maximum = 0.018 (at node 0)
Injected flit rate average = 0.0124375
	minimum = 0.009 (at node 1)
	maximum = 0.018 (at node 0)
Accepted flit rate average= 0.0125625
	minimum = 0.008 (at node 4)
	maximum = 0.018 (at node 0)
Injected packet length average = 1
Accepted packet length average = 1
Total in-flight flits = 5 (5 measured)
latency change    = 0.0443222
throughput change = 0.104478
Class 0:
Packet latency average = 20.0887
	minimum = 7
	maximum = 37
Network latency average = 20.0887
	minimum = 7
	maximum = 37
Slowest packet = 4723
Flit latency average = 20.2318
	minimum = 7
	maximum = 37
Slowest flit = 4711
Fragmentation average = 0
	minimum = 0
	maximum = 0
Injected packet rate average = 0.0118333
	minimum = 0.00866667 (at node 1)
	maximum = 0.0153333 (at node 8)
Accepted packet rate average = 0.0120417
	minimum = 0.00866667 (at node 4)
	maximum = 0.016 (at node 2)
Injected flit rate average = 0.0118333
	minimum = 0.00866667 (at node 1)
	maximum = 0.0153333 (at node 8)
Accepted flit rate average= 0.0120417
	minimum = 0.00866667 (at node 4)
	maximum = 0.016 (at node 2)
Injected packet length average = 1
Accepted packet length average = 1
Total in-flight flits = 2 (2 measured)
latency change    = 0.00559413
throughput change = 0.0432526
Class 0:
Packet latency average = 19.7398
	minimum = 7
	maximum = 37
Network latency average = 19.7398
	minimum = 7
	maximum = 37
Slowest packet = 4723
Flit latency average = 19.8564
	minimum = 7
	maximum = 37
Slowest flit = 4711
Fragmentation average = 0
	minimum = 0
	maximum = 0
Injected packet rate average = 0.0115625
	minimum = 0.0085 (at node 5)
	maximum = 0.014 (at node 0)
Accepted packet rate average = 0.01175
	minimum = 0.008 (at node 5)
	maximum = 0.0145 (at node 2)
Injected flit rate average = 0.0115625
	minimum = 0.0085 (at node 5)
	maximum = 0.014 (at node 0)
Accepted flit rate average= 0.01175
	minimum = 0.008 (at node 5)
	maximum = 0.0145 (at node 2)
Injected packet length average = 1
Accepted packet length average = 1
Total in-flight flits = 1 (1 measured)
latency change    = 0.0176706
throughput change = 0.0248227
Class 0:
Packet latency average = 19.5299
	minimum = 7
	maximum = 37
Network latency average = 19.5299
	minimum = 7
	maximum = 37
Slowest packet = 4723
Flit latency average = 19.6288
	minimum = 7
	maximum = 37
Slowest flit = 4711
Fragmentation average = 0
	minimum = 0
	maximum = 0
Injected packet rate average = 0.011525
	minimum = 0.0088 (at node 5)
	maximum = 0.0136 (at node 3)
Accepted packet rate average = 0.01145
	minimum = 0.0088 (at node 5)
	maximum = 0.0128 (at node 2)
Injected flit rate average = 0.011525
	minimum = 0.0088 (at node 5)
	maximum = 0.0136 (at node 3)
Accepted flit rate average= 0.01145
	minimum = 0.0088 (at node 5)
	maximum = 0.0128 (at node 2)
Injected packet length average = 1
Accepted packet length average = 1
Total in-flight flits = 10 (10 measured)
latency change    = 0.0107478
throughput change = 0.0262009
Draining all recorded packets ...
Draining remaining packets ...
Time taken is 4055 cycles
Class 0:
Packet latency average = 21.2254
	minimum = 7
	maximum = 37
Network latency average = 21.2254
	minimum = 7
	maximum = 37
Slowest packet = 5188
Flit latency average = 21.2254
	minimum = 7
	maximum = 37
Slowest flit = 5188
Fragmentation average = 0
	minimum = 0
	maximum = 0
Injected packet rate average = 0.0095
	minimum = 0.002 (at node 4)
	maximum = 0.02 (at node 13)
Accepted packet rate average = 0.008875
	minimum = 0.002 (at node 1)
	maximum = 0.018 (at node 7)
Injected flit rate average = 0.0095
	minimum = 0.002 (at node 4)
	maximum = 0.02 (at node 13)
Accepted flit rate average= 0.008875
	minimum = 0.002 (at node 1)
	maximum = 0.018 (at node 7)
Injected packet length average = 1
Accepted packet length average = 1
Total in-flight flits = 5 (0 measured)
latency change    = 1
throughput change = 1
Class 0:
Packet latency average = 20.7933
	minimum = 7
	maximum = 37
Network latency average = 20.7933
	minimum = 7
	maximum = 37
Slowest packet = 5188
Flit latency average = 20.7933
	minimum = 7
	maximum = 37
Slowest flit = 5188
Fragmentation average = 0
	minimum = 0
	maximum = 0
Injected packet rate average = 0.0095625
	minimum = 0.005 (at node 5)
	maximum = 0.014 (at node 6)
Accepted packet rate average = 0.009375
	minimum = 0.005 (at node 5)
	maximum = 0.014 (at node 7)
Injected flit rate average = 0.0095625
	minimum = 0.005 (at node 5)
	maximum = 0.014 (at node 6)
Accepted flit rate average= 0.009375
	minimum = 0.005 (at node 5)
	maximum = 0.014 (at node 7)
Injected packet length average = 1
Accepted packet length average = 1
Total in-flight flits = 3 (0 measured)
latency change    = 0.0207768
throughput change = 0.0533333
Class 0:
Packet latency average = 21.7978
	minimum = 7
	maximum = 37
Network latency average = 21.7978
	minimum = 7
	maximum = 37
Slowest packet = 5332
Flit latency average = 21.7978
	minimum = 7
	maximum = 37
Slowest flit = 5332
Fragmentation average = 0
	minimum = 0
	maximum = 0
Injected packet rate average = 0.011625
	minimum = 0.002 (at node 0)
	maximum = 0.02 (at node 1)
Accepted packet rate average = 0.011125
	minimum = 0.002 (at node 0)
	maximum = 0.018 (at node 2)
Injected flit rate average = 0.011625
	minimum = 0.002 (at node 0)
	maximum = 0.02 (at node 1)
Accepted flit rate average= 0.011125
	minimum = 0.002 (at node 0)
	maximum = 0.018 (at node 2)
Injected packet length average = 1
Accepted packet length average = 1
Total in-flight flits = 7 (0 measured)
latency change    = 0.046079
throughput change = 0.157303
Warmed up ...Time used is 1500 cycles
Class 0:
Packet latency average = 19.3684
	minimum = 7
	maximum = 37
Network latency average = 19.3684
	minimum = 7
	maximum = 37
Slowest packet = 5435
Flit latency average = 20.012
	minimum = 7
	maximum = 37
Slowest flit = 5423
Fragmentation average = 0
	minimum = 0
	maximum = 0
Injected packet rate average = 0.009875
	minimum = 0.002 (at node 8)
	maximum = 0.022 (at node 11)
Accepted packet rate average = 0.010375
	minimum = 0.002 (at node 10)
	maximum = 0.022 (at node 14)
Injected flit rate average = 0.009875
	minimum = 0.002 (at node 8)
	maximum = 0.022 (at node 11)
Accepted flit rate average= 0.010375
	minimum = 0.002 (at node 10)
	maximum = 0.022 (at node 14)
Injected packet length average = 1
Accepted packet length average = 1
Total in-flight flits = 3 (3 measured)
latency change    = 0.125427
throughput change = 0.0722892
Class 0:
Packet latency average = 19.9701
	minimum = 7
	maximum = 37
Network latency average = 19.9701
	minimum = 7
	maximum = 37
Slowest packet = 5435
Flit latency average = 20.2529
	minimum = 7
	maximum = 37
Slowest flit = 5423
Fragmentation average = 0
	minimum = 0
	maximum = 0
Injected packet rate average = 0.0105625
	minimum = 0.004 (at node 8)
	maximum = 0.016 (at node 11)
Accepted packet rate average = 0.010875
	minimum = 0.004 (at node 10)
	maximum = 0.016 (at node 3)
Injected flit rate average = 0.0105625
	minimum = 0.004 (at node 8)
	maximum = 0.016 (at node 11)
Accepted flit rate average= 0.010875
	minimum = 0.004 (at node 10)
	maximum = 0.016 (at node 3)
Injected packet length average = 1
Accepted packet length average = 1
Total in-flight flits = 2 (2 measured)
latency change    = 0.030127
throughput change = 0.045977
Class 0:
Packet latency average = 20.4332
	minimum = 7
	maximum = 37
Network latency average = 20.4332
	minimum = 7
	maximum = 37
Slowest packet = 5435
Flit latency average = 20.6142
	minimum = 7
	maximum = 37
Slowest flit = 5423
Fragmentation average = 0
	minimum = 0
	maximum = 0
Injected packet rate average = 0.0104583
	minimum = 0.004 (at node 10)
	maximum = 0.014 (at node 7)
Accepted packet rate average = 0.0105833
	minimum = 0.004 (at node 10)
	maximum = 0.014 (at node 12)
Injected flit rate average = 0.0104583
	minimum = 0.004 (at node 10)
	maximum = 0.014 (at node 7)
Accepted flit rate average= 0.0105833
	minimum = 0.004 (at node 10)
	maximum = 0.014 (at node 12)
Injected packet length average = 1
Accepted packet length average = 1
Total in-flight flits = 4 (4 measured)
latency change    = 0.022666
throughput change = 0.0275591
Class 0:
Packet latency average = 20.2264
	minimum = 7
	maximum = 37
Network latency average = 20.2264
	minimum = 7
	maximum = 37
Slowest packet = 5435
Flit latency average = 20.3723
	minimum = 7
	maximum = 37
Slowest flit = 5423
Fragmentation average = 0
	minimum = 0
	maximum = 0
Injected packet rate average = 0.0099375
	minimum = 0.007 (at node 15)
	maximum = 0.0135 (at node 7)
Accepted packet rate average = 0.0101563
	minimum = 0.007 (at node 15)
	maximum = 0.014 (at node 13)
Injected flit rate average = 0.0099375
	minimum = 0.007 (at node 15)
	maximum = 0.0135 (at node 7)
Accepted flit rate average= 0.0101563
	minimum = 0.007 (at node 15)
	maximum = 0.014 (at node 13)
Injected packet length average = 1
Accepted packet length average = 1
Total in-flight flits = 0 (0 measured)
latency change    = 0.0102234
throughput change = 0.0420513
Draining all recorded packets ...
Draining remaining packets ...
Time taken is 3501 cycles
Class 0:
Packet latency average = 19.9
	minimum = 7
	maximum = 37
Network latency average = 19.9
	minimum = 7
	maximum = 37
Slowest packet = 5761
Flit latency average = 19.9
	minimum = 7
	maximum = 37
Slowest flit = 5761
Fragmentation average = 0
	minimum = 0
	maximum = 0
Injected packet rate average = 0.011375
	minimum = 0.004 (at node 11)
	maximum = 0.02 (at node 8)
Accepted packet rate average = 0.01125
	minimum = 0.004 (at node 14)
	maximum = 0.018 (at node 2)
Injected flit rate average = 0.011375
	minimum = 0.004 (at node 11)
	maximum = 0.02 (at node 8)
Accepted flit rate average= 0.01125
	minimum = 0.004 (at node 14)
	maximum = 0.018 (at node 2)
Injected packet length average = 1
Accepted packet length average = 1
Total in-flight flits = 1 (0 measured)
latency change    = 1
throughput change = 1
Class 0:
Packet latency average = 19.1529
	minimum = 7
	maximum = 37
Network latency average = 19.1529
	minimum = 7
	maximum = 37
Slowest packet = 5761
Flit latency average = 19.1529
	minimum = 7
	maximum = 37
Slowest flit = 5761
Fragmentation average = 0
	minimum = 0
	maximum = 0
Injected packet rate average = 0.010875
	minimum = 0.006 (at node 4)
	maximum = 0.017 (at node 14)
Accepted packet rate average = 0.010625
	minimum = 0.006 (at node 1)
	maximum = 0.017 (at node 11)
Injected flit rate average = 0.010875
	minimum = 0.006 (at node 4)
	maximum = 0.017 (at node 14)
Accepted flit rate average= 0.010625
	minimum = 0.006 (at node 1)
	maximum = 0.017 (at node 11)
Injected packet length average = 1
Accepted packet length average = 1
Total in-flight flits = 4 (0 measured)
latency change    = 0.0390049
throughput change = 0.0588235
Class 0:
Packet latency average = 17.1408
	minimum = 7
	maximum = 37
Network latency average = 17.1408
	minimum = 7
	maximum = 37
Slowest packet = 5917
Flit latency average = 17.1408
	minimum = 7
	maximum = 37
Slowest flit = 5917
Fragmentation average = 0
	minimum = 0
	maximum = 0
Injected packet rate average = 0.0085
	minimum = 0.002 (at node 13)
	maximum = 0.016 (at node 14)
Accepted packet rate average = 0.008875
	minimum = 0.002 (at node 7)
	maximum = 0.016 (at node 11)
Injected flit rate average = 0.0085
	minimum = 0.002 (at node 13)
	maximum = 0.016 (at node 14)
Accepted flit rate average= 0.008875
	minimum = 0.002 (at node 7)
	maximum = 0.016 (at node 11)
Injected packet length average = 1
Accepted packet length average = 1
Total in-flight flits = 1 (0 measured)
latency change    = 0.117386
throughput change = 0.197183
Warmed up ...Time used is 1500 cycles
Class 0:
Packet latency average = 20.2031
	minimum = 7
	maximum = 37
Network latency average = 20.2031
	minimum = 7
	maximum = 37
Slowest packet = 6006
Flit latency average = 20.3077
	minimum = 7
	maximum = 37
Slowest flit = 6006
Fragmentation average = 0
	minimum = 0
	maximum = 0
Injected packet rate average = 0.008125
	minimum = 0 (at node 3)
	maximum = 0.02 (at node 2)
Accepted packet rate average = 0.008125
	minimum = 0 (at node 12)
	maximum = 0.02 (at node 8)
Injected flit rate average = 0.008125
	minimum = 0 (at node 3)
	maximum = 0.02 (at node 2)
Accepted flit rate average= 0.008125
	minimum = 0 (at node 12)
	maximum = 0.02 (at node 8)
Injected packet length average = 1
Accepted packet length average = 1
Total in-flight flits = 1 (1 measured)
latency change    = 0.151575
throughput change = 0.0923077
Class 0:
Packet latency average = 19.1348
	minimum = 7
	maximum = 37
Network latency average = 19.1348
	minimum = 7
	maximum = 37
Slowest packet = 6006
Flit latency average = 19.1901
	minimum = 7
	maximum = 37
Slowest flit = 6006
Fragmentation average = 0
	minimum = 0
	maximum = 0
Injected packet rate average = 0.009
	minimum = 0.006 (at node 3)
	maximum = 0.017 (at node 1)
Accepted packet rate average = 0.008875
	minimum = 0.004 (at node 2)
	maximum = 0.017 (at node 4)
Injected flit rate average = 0.009
	minimum = 0.006 (at node 3)
	maximum = 0.017 (at node 1)
Accepted flit rate average= 0.008875
	minimum = 0.004 (at node 2)
	maximum = 0.017 (at node 4)
Injected packet length average = 1
Accepted packet length average = 1
Total in-flight flits = 3 (3 measured)
latency change    = 0.0558342
throughput change = 0.084507
Class 0:
Packet latency average = 19.5474
	minimum = 7
	maximum = 37
Network latency average = 19.5474
	minimum = 7
	maximum = 37
Slowest packet = 6006
Flit latency average = 19.5794
	minimum = 7
	maximum = 37
Slowest flit = 6006
Fragmentation average = 0
	minimum = 0
	maximum = 0
Injected packet rate average = 0.00970833
	minimum = 0.00666667 (at node 15)
	maximum = 0.014 (at node 1)
Accepted packet rate average = 0.00970833
	minimum = 0.00666667 (at node 1)
	maximum = 0.014 (at node 4)
Injected flit rate average = 0.00970833
	minimum = 0.00666667 (at node 15)
	maximum = 0.014 (at node 1)
Accepted flit rate average= 0.00970833
	minimum = 0.00666667 (at node 1)
	maximum = 0.014 (at node 4)
Injected packet length average = 1
Accepted packet length average = 1
Total in-flight flits = 1 (1 measured)
latency change    = 0.0211108
throughput change = 0.0858369
Class 0:
Packet latency average = 19.254
	minimum = 7
	maximum = 37
Network latency average = 19.254
	minimum = 7
	maximum = 37
Slowest packet = 6006
Flit latency average = 19.2788
	minimum = 7
	maximum = 37
Slowest flit = 6006
Fragmentation average = 0
	minimum = 0
	maximum = 0
Injected packet rate average = 0.00971875
	minimum = 0.007 (at node 4)
	maximum = 0.0135 (at node 1)
Accepted packet rate average = 0.00975
	minimum = 0.007 (at node 1)
	maximum = 0.0135 (at node 4)
Injected flit rate average = 0.00971875
	minimum = 0.007 (at node 4)
	maximum = 0.0135 (at node 1)
Accepted flit rate average= 0.00975
	minimum = 0.007 (at node 1)
	maximum = 0.0135 (at node 4)
Injected packet length average = 1
Accepted packet length average = 1
Total in-flight flits = 0 (0 measured)
latency change    = 0.0152381
throughput change = 0.0042735
Class 0:
Packet latency average = 19.2923
	minimum = 7
	maximum = 37
Network latency average = 19.2923
	minimum = 7
	maximum = 37
Slowest packet = 6006
Flit latency average = 19.312
	minimum = 7
	maximum = 37
Slowest flit = 6006
Fragmentation average = 0
	minimum = 0
	maximum = 0
Injected packet rate average = 0.0098
	minimum = 0.0076 (at node 4)
	maximum = 0.0128 (at node 1)
Accepted packet rate average = 0.009775
	minimum = 0.0076 (at node 1)
	maximum = 0.0128 (at node 4)
Injected flit rate average = 0.0098
	minimum = 0.0076 (at node 4)
	maximum = 0.0128 (at node 1)
Accepted flit rate average= 0.009775
	minimum = 0.0076 (at node 1)
	maximum = 0.0128 (at node 4)
Injected packet length average = 1
Accepted packet length average = 1
Total in-flight flits = 2 (2 measured)
latency change    = 0.00198465
throughput change = 0.00255754
Class 0:
Packet latency average = 19.2013
	minimum = 7
	maximum = 37
Network latency average = 19.2013
	minimum = 7
	maximum = 37
Slowest packet = 6006
Flit latency average = 19.2188
	minimum = 7
	maximum = 37
Slowest flit = 6006
Fragmentation average = 0
	minimum = 0
	maximum = 0
Injected packet rate average = 0.00941667
	minimum = 0.00666667 (at node 13)
	maximum = 0.0123333 (at node 1)
Accepted packet rate average = 0.00933333
	minimum = 0.00666667 (at node 7)
	maximum = 0.0123333 (at node 4)
Injected flit rate average = 0.00941667
	minimum = 0.00666667 (at node 13)
	maximum = 0.0123333 (at node 1)
Accepted flit rate average= 0.00933333
	minimum = 0.00666667 (at node 7)
	maximum = 0.0123333 (at node 4)
Injected packet length average = 1
Accepted packet length average = 1
Total in-flight flits = 5 (5 measured)
latency change    = 0.00473745
throughput change = 0.0473214
Draining all recorded packets ...
Draining remaining packets ...
Time taken is 4527 cycles
Class 0:
Packet latency average = 17.5556
	minimum = 7
	maximum = 37
Network latency average = 17.5556
	minimum = 7
	maximum = 37
Slowest packet = 6479
Flit latency average = 17.5556
	minimum = 7
	maximum = 37
Slowest flit = 6479
Fragmentation average = 0
	minimum = 0
	maximum = 0
Injected packet rate average = 0.0095
	minimum = 0 (at node 15)
	maximum = 0.018 (at node 0)
Accepted packet rate average = 0.009
	minimum = 0 (at node 15)
	maximum = 0.018 (at node 0)
Injected flit rate average = 0.0095
	minimum = 0 (at node 15)
	maximum = 0.018 (at node 0)
Accepted flit rate average= 0.009
	minimum = 0 (at node 15)
	maximum = 0.018 (at node 0)
Injected packet length average = 1
Accepted packet length average = 1
Total in-flight flits = 4 (0 measured)
latency change    = 1
throughput change = 1
Class 0:
Packet latency average = 18.7987
	minimum = 7
	maximum = 43
Network latency average = 18.7987
	minimum = 7
	maximum = 43
Slowest packet = 6518
Flit latency average = 18.7987
	minimum = 7
	maximum = 43
Slowest flit = 6518
Fragmentation average = 0
	minimum = 0
	maximum = 0
Injected packet rate average = 0.0101875
	minimum = 0.004 (at node 12)
	maximum = 0.014 (at node 1)
Accepted packet rate average = 0.0099375
	minimum = 0.004 (at node 3)
	maximum = 0.014 (at node 4)
Injected flit rate average = 0.0101875
	minimum = 0.004 (at node 12)
	maximum = 0.014 (at node 1)
Accepted flit rate average= 0.0099375
	minimum = 0.004 (at node 3)
	maximum = 0.014 (at node 4)
Injected packet length average = 1
Accepted packet length average = 1
Total in-flight flits = 4 (0 measured)
latency change    = 0.0661314
throughput change = 0.0943396
Class 0:
Packet latency average = 17.8784
	minimum = 7
	maximum = 37
Network latency average = 17.8784
	minimum = 7
	maximum = 37
Slowest packet = 6599
Flit latency average = 17.8784
	minimum = 7
	maximum = 37
Slowest flit = 6599
Fragmentation average = 0
	minimum = 0
	maximum = 0
Injected packet rate average = 0.01
	minimum = 0 (at node 5)
	maximum = 0.02 (at node 0)
Accepted packet rate average = 0.00925
	minimum = 0 (at node 5)
	maximum = 0.02 (at node 0)
Injected flit rate average = 0.01
	minimum = 0 (at node 5)
	maximum = 0.02 (at node 0)
Accepted flit rate average= 0.00925
	minimum = 0 (at node 5)
	maximum = 0.02 (at node 0)
Injected packet length average = 1
Accepted packet length average = 1
Total in-flight flits = 10 (0 measured)
latency change    = 0.0514792
throughput change = 0.0743243
Warmed up ...Time used is 1500 cycles
Class 0:
Packet latency average = 19.3647
	minimum = 7
	maximum = 38
Network latency average = 19.3647
	minimum = 7
	maximum = 38
Slowest packet = 6728
Flit latency average = 19.7474
	minimum = 7
	maximum = 38
Slowest flit = 6728
Fragmentation average = 0
	minimum = 0
	maximum = 0
Injected packet rate average = 0.011125
	minimum = 0.006 (at node 11)
	maximum = 0.022 (at node 4)
Accepted packet rate average = 0.011875
	minimum = 0.008 (at node 6)
	maximum = 0.024 (at node 1)
Injected flit rate average = 0.011125
	minimum = 0.006 (at node 11)
	maximum = 0.022 (at node 4)
Accepted flit rate average= 0.011875
	minimum = 0.008 (at node 6)
	maximum = 0.024 (at node 1)
Injected packet length average = 1
Accepted packet length average = 1
Total in-flight flits = 4 (4 measured)
latency change    = 0.0767545
throughput change = 0.221053
Class 0:
Packet latency average = 19.5697
	minimum = 7
	maximum = 38
Network latency average = 19.5697
	minimum = 7
	maximum = 38
Slowest packet = 6728
Flit latency average = 19.7657
	minimum = 7
	maximum = 38
Slowest flit = 6728
Fragmentation average = 0
	minimum = 0
	maximum = 0
Injected packet rate average = 0.0103125
	minimum = 0.006 (at node 14)
	maximum = 0.017 (at node 4)
Accepted packet rate average = 0.0109375
	minimum = 0.007 (at node 12)
	maximum = 0.018 (at node 1)
Injected flit rate average = 0.0103125
	minimum = 0.006 (at node 14)
	maximum = 0.017 (at node 4)
Accepted flit rate average= 0.0109375
	minimum = 0.007 (at node 12)
	maximum = 0.018 (at node 1)
Injected packet length average = 1
Accepted packet length average = 1
Total in-flight flits = 0 (0 measured)
latency change    = 0.0104749
throughput change = 0.0857143
Class 0:
Packet latency average = 19.5267
	minimum = 7
	maximum = 38
Network latency average = 19.5267
	minimum = 7
	maximum = 38
Slowest packet = 6728
Flit latency average = 19.664
	minimum = 7
	maximum = 38
Slowest flit = 6728
Fragmentation average = 0
	minimum = 0
	maximum = 0
Injected packet rate average = 0.0102083
	minimum = 0.006 (at node 14)
	maximum = 0.0166667 (at node 8)
Accepted packet rate average = 0.0105417
	minimum = 0.00733333 (at node 0)
	maximum = 0.0153333 (at node 2)
Injected flit rate average = 0.0102083
	minimum = 0.006 (at node 14)
	maximum = 0.0166667 (at node 8)
Accepted flit rate average= 0.0105417
	minimum = 0.00733333 (at node 0)
	maximum = 0.0153333 (at node 2)
Injected packet length average = 1
Accepted packet length average = 1
Total in-flight flits = 2 (2 measured)
latency change    = 0.00219944
throughput change = 0.0375494
Class 0:
Packet latency average = 19.5952
	minimum = 7
	maximum = 38
Network latency average = 19.5952
	minimum = 7
	maximum = 38
Slowest packet = 6728
Flit latency average = 19.6936
	minimum = 7
	maximum = 38
Slowest flit = 6728
Fragmentation average = 0
	minimum = 0
	maximum = 0
Injected packet rate average = 0.0106563
	minimum = 0.0065 (at node 14)
	maximum = 0.016 (at node 8)
Accepted packet rate average = 0.0108125
	minimum = 0.0075 (at node 11)
	maximum = 0.015 (at node 2)
Injected flit rate average = 0.0106563
	minimum = 0.0065 (at node 14)
	maximum = 0.016 (at node 8)
Accepted flit rate average= 0.0108125
	minimum = 0.0075 (at node 11)
	maximum = 0.015 (at node 2)
Injected packet length average = 1
Accepted packet length average = 1
Total in-flight flits = 5 (5 measured)
latency change    = 0.00349519
throughput change = 0.0250482
Class 0:
Packet latency average = 19.7212
	minimum = 7
	maximum = 38
Network latency average = 19.7212
	minimum = 7
	maximum = 38
Slowest packet = 6728
Flit latency average = 19.7981
	minimum = 7
	maximum = 38
Slowest flit = 6728
Fragmentation average = 0
	minimum = 0
	maximum = 0
Injected packet rate average = 0.010475
	minimum = 0.0076 (at node 14)
	maximum = 0.0144 (at node 8)
Accepted packet rate average = 0.01065
	minimum = 0.0076 (at node 4)
	maximum = 0.0144 (at node 2)
Injected flit rate average = 0.010475
	minimum = 0.0076 (at node 14)
	maximum = 0.0144 (at node 8)
Accepted flit rate average= 0.01065
	minimum = 0.0076 (at node 4)
	maximum = 0.0144 (at node 2)
Injected packet length average = 1
Accepted packet length average = 1
Total in-flight flits = 3 (3 measured)
latency change    = 0.00638481
throughput change = 0.0152582
Draining all recorded packets ...
Draining remaining packets ...
Time taken is 4047 cycles
Class 0:
Packet latency average = 18.5538
	minimum = 7
	maximum = 44
Network latency average = 18.5538
	minimum = 7
	maximum = 44
Slowest packet = 7171
Flit latency average = 18.5538
	minimum = 7
	maximum = 44
Slowest flit = 7171
Fragmentation average = 0
	minimum = 0
	maximum = 0
Injected packet rate average = 0.008375
	minimum = 0 (at node 2)
	maximum = 0.014 (at node 0)
Accepted packet rate average = 0.008125
	minimum = 0 (at node 8)
	maximum = 0.014 (at node 0)
Injected flit rate average = 0.008375
	minimum = 0 (at node 2)
	maximum = 0.014 (at node 0)
Accepted flit rate average= 0.008125
	minimum = 0 (at node 8)
	maximum = 0.014 (at node 0)
Injected packet length average = 1
Accepted packet length average = 1
Total in-flight flits = 2 (0 measured)
latency change    = 1
throughput change = 1
Class 0:
Packet latency average = 18.5347
	minimum = 7
	maximum = 44
Network latency average = 18.5347
	minimum = 7
	maximum = 44
Slowest packet = 7171
Flit latency average = 18.5347
	minimum = 7
	maximum = 44
Slowest flit = 7171
Fragmentation average = 0
	minimum = 0
	maximum = 0
Injected packet rate average = 0.0091875
	minimum = 0.003 (at node 2)
	maximum = 0.019 (at node 4)
Accepted packet rate average = 0.009
	minimum = 0.003 (at node 8)
	maximum = 0.018 (at node 1)
Injected flit rate average = 0.0091875
	minimum = 0.003 (at node 2)
	maximum = 0.019 (at node 4)
Accepted flit rate average= 0.009
	minimum = 0.003 (at node 8)
	maximum = 0.018 (at node 1)
Injected packet length average = 1
Accepted packet length average = 1
Total in-flight flits = 3 (0 measured)
latency change    = 0.00103179
throughput change = 0.0972222
Class 0:
Packet latency average = 20.7286
	minimum = 7
	maximum = 37
Network latency average = 20.7286
	minimum = 7
	maximum = 37
Slowest packet = 7263
Flit latency average = 20.7286
	minimum = 7
	maximum = 37
Slowest flit = 7263
Fragmentation average = 0
	minimum = 0
	maximum = 0
Injected packet rate average = 0.00875
	minimum = 0.002 (at node 11)
	maximum = 0.016 (at node 6)
Accepted packet rate average = 0.00875
	minimum = 0.002 (at node 13)
	maximum = 0.016 (at node 9)
Injected flit rate average = 0.00875
	minimum = 0.002 (at node 11)
	maximum = 0.016 (at node 6)
Accepted flit rate average= 0.00875
	minimum = 0.002 (at node 13)
	maximum = 0.016 (at node 9)
Injected packet length average = 1
Accepted packet length average = 1
Total in-flight flits = 3 (0 measured)
latency change    = 0.105837
throughput change = 0.0285714
Warmed up ...Time used is 1500 cycles
Class 0:
Packet latency average = 17.6757
	minimum = 7
	maximum = 37
Network latency average = 17.6757
	minimum = 7
	maximum = 37
Slowest packet = 7338
Flit latency average = 18.1688
	minimum = 7
	maximum = 37
Slowest flit = 7323
Fragmentation average = 0
	minimum = 0
	maximum = 0
Injected packet rate average = 0.0095
	minimum = 0.004 (at node 6)
	maximum = 0.018 (at node 13)
Accepted packet rate average = 0.009625
	minimum = 0.004 (at node 6)
	maximum = 0.018 (at node 7)
Injected flit rate average = 0.0095
	minimum = 0.004 (at node 6)
	maximum = 0.018 (at node 13)
Accepted flit rate average= 0.009625
	minimum = 0.004 (at node 6)
	maximum = 0.018 (at node 7)
Injected packet length average = 1
Accepted packet length average = 1
Total in-flight flits = 2 (2 measured)
latency change    = 0.172717
throughput change = 0.0909091
Class 0:
Packet latency average = 18.9167
	minimum = 7
	maximum = 37
Network latency average = 18.9167
	minimum = 7
	maximum = 37
Slowest packet = 7338
Flit latency average = 19.1321
	minimum = 7
	maximum = 37
Slowest flit = 7323
Fragmentation average = 0
	minimum = 0
	maximum = 0
Injected packet rate average = 0.0099375
	minimum = 0.006 (at node 1)
	maximum = 0.015 (at node 2)
Accepted packet rate average = 0.0099375
	minimum = 0.006 (at node 4)
	maximum = 0.015 (at node 15)
Injected flit rate average = 0.0099375
	minimum = 0.006 (at node 1)
	maximum = 0.015 (at node 2)
Accepted flit rate average= 0.0099375
	minimum = 0.006 (at node 4)
	maximum = 0.015 (at node 15)
[...]
Time taken is 4531 cycles
Class 0:
Packet latency average = 20.4429
	minimum = 7
	maximum = 38
Network latency average = 20.4429
	minimum = 7
	maximum = 38
Slowest packet = 31487
Flit latency average = 20.4429
	minimum = 7
	maximum = 38
Slowest flit = 31487
Fragmentation average = 0
	minimum = 0
	maximum = 0
Injected packet rate average = 0.009125
	minimum = 0.002 (at node 13)
	maximum = 0.02 (at node 12)
Accepted packet rate average = 0.00875
	minimum = 0.002 (at node 7)
	maximum = 0.02 (at node 3)
Injected flit rate average = 0.009125
	minimum = 0.002 (at node 13)
	maximum = 0.02 (at node 12)
Accepted flit rate average= 0.00875
	minimum = 0.002 (at node 7)
	maximum = 0.02 (at node 3)
Injected packet length average = 1
Accepted packet length average = 1
Total in-flight flits = 3 (0 measured)
latency change    = 1
throughput change = 1
Class 0:
Packet latency average = 19.9648
	minimum = 7
	maximum = 38
Network latency average = 19.9648
	minimum = 7
	maximum = 38
Slowest packet = 31487
Flit latency average = 19.9648
	minimum = 7
	maximum = 38
Slowest flit = 31487
Fragmentation average = 0
	minimum = 0
	maximum = 0
Injected packet rate average = 0.0091875
	minimum = 0.004 (at node 5)
	maximum = 0.014 (at node 12)
Accepted packet rate average = 0.008875
	minimum = 0.004 (at node 5)
	maximum = 0.013 (at node 3)
Injected flit rate average = 0.0091875
	minimum = 0.004 (at node 5)
	maximum = 0.014 (at node 12)
Accepted flit rate average= 0.008875
	minimum = 0.004 (at node 5)
	maximum = 0.013 (at node 3)
Injected packet length average = 1
Accepted packet length average = 1
Total in-flight flits = 5 (0 measured)
latency change    = 0.0239456
throughput change = 0.0140845
Class 0:
Packet latency average = 18.4719
	minimum = 7
	maximum = 37
Network latency average = 18.4719
	minimum = 7
	maximum = 37
Slowest packet = 31602
Flit latency average = 18.4719
	minimum = 7
	maximum = 37
Slowest flit = 31602
Fragmentation average = 0
	minimum = 0
	maximum = 0
Injected packet rate average = 0.010625
	minimum = 0.004 (at node 0)
	maximum = 0.018 (at node 15)
Accepted packet rate average = 0.011125
	minimum = 0.006 (at node 0)
	maximum = 0.02 (at node 15)
Injected flit rate average = 0.010625
	minimum = 0.004 (at node 0)
	maximum = 0.018 (at node 15)
Accepted flit rate average= 0.011125
	minimum = 0.006 (at node 0)
	maximum = 0.02 (at node 15)
Injected packet length average = 1
Accepted packet length average = 1
Total in-flight flits = 1 (0 measured)
latency change    = 0.0808189
throughput change = 0.202247
Warmed up ...Time used is 1500 cycles
Class 0:
Packet latency average = 18.0312
	minimum = 7
	maximum = 37
Network latency average = 18.0312
	minimum = 7
	maximum = 37
Slowest packet = 31691
Flit latency average = 18.1692
	minimum = 7
	maximum = 37
Slowest flit = 31691
Fragmentation average = 0
	minimum = 0
	maximum = 0
Injected packet rate average = 0.00825
	minimum = 0 (at node 9)
	maximum = 0.016 (at node 2)
Accepted packet rate average = 0.008125
	minimum = 0 (at node 6)
	maximum = 0.016 (at node 15)
Injected flit rate average = 0.00825
	minimum = 0 (at node 9)
	maximum = 0.016 (at node 2)
Accepted flit rate average= 0.008125
	minimum = 0 (at node 6)
	maximum = 0.016 (at node 15)
Injected packet length average = 1
Accepted packet length average = 1
Total in-flight flits = 2 (2 measured)
latency change    = 0.0244387
throughput change = 0.369231
Class 0:
Packet latency average = 19.7748
	minimum = 7
	maximum = 44
Network latency average = 19.7748
	minimum = 7
	maximum = 44
Slowest packet = 31811
Flit latency average = 19.8224
	minimum = 7
	maximum = 44
Slowest flit = 31811
Fragmentation average = 0
	minimum = 0
	maximum = 0
Injected packet rate average = 0.00975
	minimum = 0.004 (at node 5)
	maximum = 0.014 (at node 15)
Accepted packet rate average = 0.0095
	minimum = 0.004 (at node 5)
	maximum = 0.014 (at node 15)
Injected flit rate average = 0.00975
	minimum = 0.004 (at node 5)
	maximum = 0.014 (at node 15)
Accepted flit rate average= 0.0095
	minimum = 0.004 (at node 5)
	maximum = 0.014 (at node 15)
Injected packet length average = 1
Accepted packet length average = 1
Total in-flight flits = 5 (5 measured)
latency change    = 0.0881719
throughput change = 0.144737
Class 0:
Packet latency average = 19.9872
	minimum = 7
	maximum = 44
Network latency average = 19.9872
	minimum = 7
	maximum = 44
Slowest packet = 31811
Flit latency average = 20.017
	minimum = 7
	maximum = 44
Slowest flit = 31811
Fragmentation average = 0
	minimum = 0
	maximum = 0
Injected packet rate average = 0.00991667
	minimum = 0.00466667 (at node 5)
	maximum = 0.0146667 (at node 2)
Accepted packet rate average = 0.00979167
	minimum = 0.00466667 (at node 5)
	maximum = 0.014 (at node 8)
Injected flit rate average = 0.00991667
	minimum = 0.00466667 (at node 5)
	maximum = 0.0146667 (at node 2)
Accepted flit rate average= 0.00979167
	minimum = 0.00466667 (at node 5)
	maximum = 0.014 (at node 8)
Injected packet length average = 1
Accepted packet length average = 1
Total in-flight flits = 4 (4 measured)
latency change    = 0.0106241
throughput change = 0.0297872
Class 0:
Packet latency average = 20.4272
	minimum = 7
	maximum = 44
Network latency average = 20.4272
	minimum = 7
	maximum = 44
Slowest packet = 31811
Flit latency average = 20.4484
	minimum = 7
	maximum = 44
Slowest flit = 31811
Fragmentation average = 0
	minimum = 0
	maximum = 0
Injected packet rate average = 0.00971875
	minimum = 0.006 (at node 8)
	maximum = 0.015 (at node 2)
Accepted packet rate average = 0.0096875
	minimum = 0.006 (at node 2)
	maximum = 0.015 (at node 8)
Injected flit rate average = 0.00971875
	minimum = 0.006 (at node 8)
	maximum = 0.015 (at node 2)
Accepted flit rate average= 0.0096875
	minimum = 0.006 (at node 2)
	maximum = 0.015 (at node 8)
Injected packet length average = 1
Accepted packet length average = 1
Total in-flight flits = 2 (2 measured)
latency change    = 0.0215402
throughput change = 0.0107527
Class 0:
Packet latency average = 20.2062
	minimum = 7
	maximum = 44
Network latency average = 20.2062
	minimum = 7
	maximum = 44
Slowest packet = 31811
Flit latency average = 20.2237
	minimum = 7
	maximum = 44
Slowest flit = 31811
Fragmentation average = 0
	minimum = 0
	maximum = 0
Injected packet rate average = 0.00985
	minimum = 0.0064 (at node 5)
	maximum = 0.0144 (at node 3)
Accepted packet rate average = 0.009725
	minimum = 0.0064 (at node 5)
	maximum = 0.0144 (at node 12)
Injected flit rate average = 0.00985
	minimum = 0.0064 (at node 5)
	maximum = 0.0144 (at node 3)
Accepted flit rate average= 0.009725
	minimum = 0.0064 (at node 5)
	maximum = 0.0144 (at node 12)
Injected packet length average = 1
Accepted packet length average = 1
Total in-flight flits = 6 (6 measured)
latency change    = 0.0109372
throughput change = 0.00385604
Draining all recorded packets ...
Draining remaining packets ...
Time taken is 4052 cycles
Class 0:
Packet latency average = 18.6118
	minimum = 7
	maximum = 37
Network latency average = 18.6118
	minimum = 7
	maximum = 37
Slowest packet = 32094
Flit latency average = 18.6118
	minimum = 7
	maximum = 37
Slowest flit = 32094
Fragmentation average = 0
	minimum = 0
	maximum = 0
Injected packet rate average = 0.01125
	minimum = 0.004 (at node 5)
	maximum = 0.02 (at node 9)
Accepted packet rate average = 0.010625
	minimum = 0.004 (at node 2)
	maximum = 0.02 (at node 7)
Injected flit rate average = 0.01125
	minimum = 0.004 (at node 5)
	maximum = 0.02 (at node 9)
Accepted flit rate average= 0.010625
	minimum = 0.004 (at node 2)
	maximum = 0.02 (at node 7)
Injected packet length average = 1
Accepted packet length average = 1
Total in-flight flits = 5 (0 measured)
latency change    = 1
throughput change = 1
Class 0:
Packet latency average = 18.6159
	minimum = 7
	maximum = 41
Network latency average = 18.6159
	minimum = 7
	maximum = 41
Slowest packet = 32183
Flit latency average = 18.6159
	minimum = 7
	maximum = 41
Slowest flit = 32183
Fragmentation average = 0
	minimum = 0
	maximum = 0
Injected packet rate average = 0.0105
	minimum = 0.005 (at node 5)
	maximum = 0.015 (at node 9)
Accepted packet rate average = 0.01025
	minimum = 0.005 (at node 5)
	maximum = 0.015 (at node 6)
Injected flit rate average = 0.0105
	minimum = 0.005 (at node 5)
	maximum = 0.015 (at node 9)
Accepted flit rate average= 0.01025
	minimum = 0.005 (at node 5)
	maximum = 0.015 (at node 6)
Injected packet length average = 1
Accepted packet length average = 1
Total in-flight flits = 4 (0 measured)
latency change    = 0.000219649
throughput change = 0.0365854
Class 0:
Packet latency average = 20.2568
	minimum = 7
	maximum = 37
Network latency average = 20.2568
	minimum = 7
	maximum = 37
Slowest packet = 32251
Flit latency average = 20.2568
	minimum = 7
	maximum = 37
Slowest flit = 32251
Fragmentation average = 0
	minimum = 0
	maximum = 0
Injected packet rate average = 0.009
	minimum = 0.004 (at node 5)
	maximum = 0.02 (at node 2)
Accepted packet rate average = 0.00925
	minimum = 0.004 (at node 2)
	maximum = 0.022 (at node 8)
Injected flit rate average = 0.009
	minimum = 0.004 (at node 5)
	maximum = 0.02 (at node 2)
Accepted flit rate average= 0.00925
	minimum = 0.004 (at node 2)
	maximum = 0.022 (at node 8)
Injected packet length average = 1
Accepted packet length average = 1
Total in-flight flits = 2 (0 measured)
latency change    = 0.0810052
throughput change = 0.108108
Warmed up ...Time used is 1500 cycles
Class 0:
Packet latency average = 18.9655
	minimum = 7
	maximum = 37
Network latency average = 18.9655
	minimum = 7
	maximum = 37
Slowest packet = 32330
Flit latency average = 19.1461
	minimum = 7
	maximum = 37
Slowest flit = 32330
Fragmentation average = 0
	minimum = 0
	maximum = 0
Injected packet rate average = 0.011375
	minimum = 0.004 (at node 2)
	maximum = 0.02 (at node 11)
Accepted packet rate average = 0.011125
	minimum = 0.004 (at node 9)
	maximum = 0.02 (at node 14)
Injected flit rate average = 0.011375
	minimum = 0.004 (at node 2)
	maximum = 0.02 (at node 11)
Accepted flit rate average= 0.011125
	minimum = 0.004 (at node 9)
	maximum = 0.02 (at node 14)
Injected packet length average = 1
Accepted packet length average = 1
Total in-flight flits = 4 (4 measured)
latency change    = 0.0680835
throughput change = 0.168539
Class 0:
Packet latency average = 19.6667
	minimum = 7
	maximum = 37
Network latency average = 19.6667
	minimum = 7
	maximum = 37
Slowest packet = 32330
Flit latency average = 19.75
	minimum = 7
	maximum = 37
Slowest flit = 32330
Fragmentation average = 0
	minimum = 0
	maximum = 0
Injected packet rate average = 0.011125
	minimum = 0.006 (at node 6)
	maximum = 0.02 (at node 8)
Accepted packet rate average = 0.011
	minimum = 0.005 (at node 13)
	maximum = 0.021 (at node 2)
Injected flit rate average = 0.011125
	minimum = 0.006 (at node 6)
	maximum = 0.02 (at node 8)
Accepted flit rate average= 0.011
	minimum = 0.005 (at node 13)
	maximum = 0.021 (at node 2)
Injected packet length average = 1
Accepted packet length average = 1
Total in-flight flits = 4 (4 measured)
latency change    = 0.0356517
throughput change = 0.0113636
Class 0:
Packet latency average = 19.6367
	minimum = 7
	maximum = 37
Network latency average = 19.6367
	minimum = 7
	maximum = 37
Slowest packet = 32330
Flit latency average = 19.6914
	minimum = 7
	maximum = 37
Slowest flit = 32330
Fragmentation average = 0
	minimum = 0
	maximum = 0
Injected packet rate average = 0.0113333
	minimum = 0.006 (at node 7)
	maximum = 0.016 (at node 11)
Accepted packet rate average = 0.0112083
	minimum = 0.006 (at node 13)
	maximum = 0.0153333 (at node 2)
Injected flit rate average = 0.0113333
	minimum = 0.006 (at node 7)
	maximum = 0.016 (at node 11)
Accepted flit rate average= 0.0112083
	minimum = 0.006 (at node 13)
	maximum = 0.0153333 (at node 2)
Injected packet length average = 1
Accepted packet length average = 1
Total in-flight flits = 5 (5 measured)
latency change    = 0.00152584
throughput change = 0.0185874
Class 0:
Packet latency average = 19.5723
	minimum = 7
	maximum = 37
Network latency average = 19.5723
	minimum = 7
	maximum = 37
Slowest packet = 32330
Flit latency average = 19.6149
	minimum = 7
	maximum = 37
Slowest flit = 32330
Fragmentation average = 0
	minimum = 0
	maximum = 0
Injected packet rate average = 0.0109062
	minimum = 0.0075 (at node 7)
	maximum = 0.0145 (at node 11)
Accepted packet rate average = 0.010875
	minimum = 0.0075 (at node 13)
	maximum = 0.0145 (at node 14)
Injected flit rate average = 0.0109062
	minimum = 0.0075 (at node 7)
	maximum = 0.0145 (at node 11)
Accepted flit rate average= 0.010875
	minimum = 0.0075 (at node 13)
	maximum = 0.0145 (at node 14)
Injected packet length average = 1
Accepted packet length average = 1
Total in-flight flits = 3 (3 measured)
latency change    = 0.00329292
throughput change = 0.0306513
Draining all recorded packets ...
Draining remaining packets ...
Time taken is 3535 cycles
Class 0:
Packet latency average = 19.8913
	minimum = 7
	maximum = 37
Network latency average = 19.8913
	minimum = 7
	maximum = 37
Slowest packet = 32684
Flit latency average = 19.8913
	minimum = 7
	maximum = 37
Slowest flit = 32684
Fragmentation average = 0
	minimum = 0
	maximum = 0
Injected packet rate average = 0.01175
	minimum = 0.004 (at node 14)
	maximum = 0.02 (at node 1)
Accepted packet rate average = 0.0115
	minimum = 0.004 (at node 11)
	maximum = 0.02 (at node 4)
Injected flit rate average = 0.01175
	minimum = 0.004 (at node 14)
	maximum = 0.02 (at node 1)
Accepted flit rate average= 0.0115
	minimum = 0.004 (at node 11)
	maximum = 0.02 (at node 4)
Injected packet length average = 1
Accepted packet length average = 1
Total in-flight flits = 2 (0 measured)
latency change    = 1
throughput change = 1
Class 0:
Packet latency average = 20.1149
	minimum = 7
	maximum = 43
Network latency average = 20.1149
	minimum = 7
	maximum = 43
Slowest packet = 32787
Flit latency average = 20.1149
	minimum = 7
	maximum = 43
Slowest flit = 32787
Fragmentation average = 0
	minimum = 0
	maximum = 0
Injected packet rate average = 0.0109375
	minimum = 0.005 (at node 4)
	maximum = 0.015 (at node 3)
Accepted packet rate average = 0.010875
	minimum = 0.005 (at node 1)
	maximum = 0.015 (at node 12)
Injected flit rate average = 0.0109375
	minimum = 0.005 (at node 4)
	maximum = 0.015 (at node 3)
Accepted flit rate average= 0.010875
	minimum = 0.005 (at node 1)
	maximum = 0.015 (at node 12)
Injected packet length average = 1
Accepted packet length average = 1
Total in-flight flits = 1 (0 measured)
latency change    = 0.011118
throughput change = 0.0574713
Class 0:
Packet latency average = 18.8987
	minimum = 7
	maximum = 37
Network latency average = 18.8987
	minimum = 7
	maximum = 37
Slowest packet = 32857
Flit latency average = 18.8987
	minimum = 7
	maximum = 37
Slowest flit = 32857
Fragmentation average = 0
	minimum = 0
	maximum = 0
Injected packet rate average = 0.010375
	minimum = 0.002 (at node 7)
	maximum = 0.022 (at node 3)
Accepted packet rate average = 0.009875
	minimum = 0 (at node 13)
	maximum = 0.02 (at node 12)
Injected flit rate average = 0.010375
	minimum = 0.002 (at node 7)
	maximum = 0.022 (at node 3)
Accepted flit rate average= 0.009875
	minimum = 0 (at node 13)
	maximum = 0.02 (at node 12)
Injected packet length average = 1
Accepted packet length average = 1
Total in-flight flits = 5 (0 measured)
latency change    = 0.064354
throughput change = 0.101266
Warmed up ...Time used is 1500 cycles
Class 0:
Packet latency average = 17.4167
	minimum = 7
	maximum = 37
Network latency average = 17.4167
	minimum = 7
	maximum = 37
Slowest packet = 32942
Flit latency average = 17.6494
	minimum = 7
	maximum = 37
Slowest flit = 32935
Fragmentation average = 0
	minimum = 0
	maximum = 0
Injected packet rate average = 0.009375
	minimum = 0 (at node 8)
	maximum = 0.02 (at node 15)
Accepted packet rate average = 0.009625
	minimum = 0 (at node 2)
	maximum = 0.02 (at node 15)
Injected flit rate average = 0.009375
	minimum = 0 (at node 8)
	maximum = 0.02 (at node 15)
Accepted flit rate average= 0.009625
	minimum = 0 (at node 2)
	maximum = 0.02 (at node 15)
Injected packet length average = 1
Accepted packet length average = 1
Total in-flight flits = 3 (3 measured)
latency change    = 0.0850948
throughput change = 0.025974
Class 0:
Packet latency average = 18.3072
	minimum = 7
	maximum = 37
Network latency average = 18.3072
	minimum = 7
	maximum = 37
Slowest packet = 32942
Flit latency average = 18.3924
	minimum = 7
	maximum = 37
Slowest flit = 32935
Fragmentation average = 0
	minimum = 0
	maximum = 0
Injected packet rate average = 0.0096875
	minimum = 0.002 (at node 8)
	maximum = 0.016 (at node 15)
Accepted packet rate average = 0.009875
	minimum = 0.002 (at node 2)
	maximum = 0.016 (at node 15)
Injected flit rate average = 0.0096875
	minimum = 0.002 (at node 8)
	maximum = 0.016 (at node 15)
Accepted flit rate average= 0.009875
	minimum = 0.002 (at node 2)
	maximum = 0.016 (at node 15)
Injected packet length average = 1
Accepted packet length average = 1
Total in-flight flits = 2 (2 measured)
latency change    = 0.0486433
throughput change = 0.0253165
Class 0:
Packet latency average = 18.8383
	minimum = 7
	maximum = 37
Network latency average = 18.8383
	minimum = 7
	maximum = 37
Slowest packet = 32942
Flit latency average = 18.8833
	minimum = 7
	maximum = 37
Slowest flit = 32935
Fragmentation average = 0
	minimum = 0
	maximum = 0
Injected packet rate average = 0.009875
	minimum = 0.004 (at node 8)
	maximum = 0.0146667 (at node 1)
Accepted packet rate average = 0.01
	minimum = 0.004 (at node 2)
	maximum = 0.0146667 (at node 4)
Injected flit rate average = 0.009875
	minimum = 0.004 (at node 8)
	maximum = 0.0146667 (at node 1)
Accepted flit rate average= 0.01
	minimum = 0.004 (at node 2)
	maximum = 0.0146667 (at node 4)
Injected packet length average = 1
Accepted packet length average = 1
Total in-flight flits = 2 (2 measured)
latency change    = 0.028193
throughput change = 0.0125
Class 0:
Packet latency average = 18.8113
	minimum = 7
	maximum = 41
Network latency average = 18.8113
	minimum = 7
	maximum = 41
Slowest packet = 33200
Flit latency average = 18.8452
	minimum = 7
	maximum = 41
Slowest flit = 33200
Fragmentation average = 0
	minimum = 0
	maximum = 0
Injected packet rate average = 0.0100313
	minimum = 0.005 (at node 4)
	maximum = 0.014 (at node 1)
Accepted packet rate average = 0.0100938
	minimum = 0.005 (at node 1)
	maximum = 0.0145 (at node 4)
Injected flit rate average = 0.0100313
	minimum = 0.005 (at node 4)
	maximum = 0.014 (at node 1)
Accepted flit rate average= 0.0100938
	minimum = 0.005 (at node 1)
	maximum = 0.0145 (at node 4)
Injected packet length average = 1
Accepted packet length average = 1
Total in-flight flits = 3 (3 measured)
latency change    = 0.00143409
throughput change = 0.00928793
Draining all recorded packets ...
Draining remaining packets ...
Time taken is 3542 cycles
====== Overall Traffic Statistics ======
====== Traffic class 0 ======
Packet latency average = 19.5703 (50 samples)
	minimum = 7 (50 samples)
	maximum = 40.02 (50 samples)
Network latency average = 19.5703 (50 samples)
	minimum = 7 (50 samples)
	maximum = 40.02 (50 samples)
Flit latency average = 19.6045 (50 samples)
	minimum = 7 (50 samples)
	maximum = 40.04 (50 samples)
Fragmentation average = 0 (50 samples)
	minimum = 0 (50 samples)
	maximum = 0 (50 samples)
Injected packet rate average = 0.0100521 (50 samples)
	minimum = 0.00672314 (50 samples)
	maximum = 0.0135636 (50 samples)
Accepted packet rate average = 0.0100536 (50 samples)
	minimum = 0.00673524 (50 samples)
	maximum = 0.0135766 (50 samples)
Injected flit rate average = 0.0100521 (50 samples)
	minimum = 0.00672314 (50 samples)
	maximum = 0.0135636 (50 samples)
Accepted flit rate average = 0.0100536 (50 samples)
	minimum = 0.00673524 (50 samples)
	maximum = 0.0135766 (50 samples)
Injected packet size average = 1 (50 samples)
Accepted packet size average = 1 (50 samples)
Hops average = 3.50136 (50 samples)
Total run time 1.52343
