BEGIN Configuration File: /tmp/tmpqkmf2s__.cfg
topology = mesh;
k = 4;
n = 2;
routing_function = planar_adapt;
num_vcs = 4;
vc_buf_size = 4;
wait_for_tail_credit = 1;
vc_allocator = islip;
sw_allocator = islip;
alloc_iters = 1;
credit_delay = 2;
routing_delay = 1;
vc_alloc_delay = 1;
sw_alloc_delay = 1;
input_speedup = 2;
output_speedup = 1;
internal_speedup = 1.0;
traffic = uniform;
packet_size = 1;
sim_type = latency;
injection_rate = 0.05;
warmup_periods = 3;
sample_period = 500;
sim_count = 50;
seed = 1;
link_failures = 2;
fail_seed = 101;

END Configuration File: /tmp/tmpqkmf2s__.cfg
failure at node 14, channel 0 (1/2)
failure at node 12, channel 0 (2/2)
Class 0:
Packet latency average = 20.872
	minimum = 7
	maximum = 66
Network latency average = 20.872
	minimum = 7
	maximum = 66
Slowest packet = 107
Flit latency average = 20.872
	minimum = 7
	maximum = 66
Slowest flit = 107
Fragmentation average = 0
	minimum = 0
	maximum = 0
Injected packet rate average = 0.049125
	minimum = 0.032 (at node 9)
	maximum = 0.074 (at node 1)
Accepted packet rate average = 0.046875
	minimum = 0.03 (at node 6)
	maximum = 0.062 (at node 9)
Injected flit rate average = 0.049125
	minimum = 0.032 (at node 9)
	maximum = 0.074 (at node 1)
Accepted flit rate average= 0.046875
	minimum = 0.03 (at node 6)
	maximum = 0.062 (at node 9)
Injected packet length average = 1
Accepted packet length average = 1
Total in-flight flits = 18 (0 measured)
latency change    = 1
throughput change = 1
Class 0:
Packet latency average = 20.9384
	minimum = 7
	maximum = 73
Network latency average = 20.9384
	minimum = 7
	maximum = 73
Slowest packet = 451
Flit latency average = 20.9384
	minimum = 7
	maximum = 73
Slowest flit = 451
Fragmentation average = 0
	minimum = 0
	maximum = 0
Injected packet rate average = 0.0505
	minimum = 0.038 (at node 9)
	maximum = 0.073 (at node 1)
Accepted packet rate average = 0.04975
	minimum = 0.032 (at node 6)
	maximum = 0.061 (at node 9)
Injected flit rate average = 0.0505
	minimum = 0.038 (at node 9)
	maximum = 0.073 (at node 1)
Accepted flit rate average= 0.04975
	minimum = 0.032 (at node 6)
	maximum = 0.061 (at node 9)
Injected packet length average = 1
Accepted packet length average = 1
Total in-flight flits = 12 (0 measured)
latency change    = 0.00317322
throughput change = 0.0577889
Class 0:
Packet latency average = 20.3627
	minimum = 7
	maximum = 56
Network latency average = 20.3627
	minimum = 7
	maximum = 56
Slowest packet = 920
Flit latency average = 20.3627
	minimum = 7
	maximum = 56
Slowest flit = 920
Fragmentation average = 0
	minimum = 0
	maximum = 0
Injected packet rate average = 0.05
	minimum = 0.03 (at node 10)
	maximum = 0.068 (at node 12)
Accepted packet rate average = 0.049625
	minimum = 0.034 (at node 6)
	maximum = 0.064 (at node 9)
Injected flit rate average = 0.05
	minimum = 0.03 (at node 10)
	maximum = 0.068 (at node 12)
Accepted flit rate average= 0.049625
	minimum = 0.034 (at node 6)
	maximum = 0.064 (at node 9)
Injected packet length average = 1
Accepted packet length average = 1
Total in-flight flits = 15 (0 measured)
latency change    = 0.0282733
throughput change = 0.00251889
Warmed up ...Time used is 1500 cycles
Class 0:
Packet latency average = 19.8394
	minimum = 7
	maximum = 44
Network latency average = 19.8394
	minimum = 7
	maximum = 44
Slowest packet = 1576
Flit latency average = 19.9343
	minimum = 7
	maximum = 44
Slowest flit = 1576
Fragmentation average = 0
	minimum = 0
	maximum = 0
Injected packet rate average = 0.052875
	minimum = 0.036 (at node 11)
	maximum = 0.068 (at node 15)
Accepted packet rate average = 0.05325
	minimum = 0.026 (at node 7)
	maximum = 0.07 (at node 1)
Injected flit rate average = 0.052875
	minimum = 0.036 (at node 11)
	maximum = 0.068 (at node 15)
Accepted flit rate average= 0.05325
	minimum = 0.026 (at node 7)
	maximum = 0.07 (at node 1)
Injected packet length average = 1
Accepted packet length average = 1
Total in-flight flits = 12 (12 measured)
latency change    = 0.026377
throughput change = 0.0680751
Class 0:
Packet latency average = 20.3008
	minimum = 7
	maximum = 50
Network latency average = 20.3008
	minimum = 7
	maximum = 50
Slowest packet = 1677
Flit latency average = 20.3395
	minimum = 7
	maximum = 50
Slowest flit = 1677
Fragmentation average = 0
	minimum = 0
	maximum = 0
Injected packet rate average = 0.054125
	minimum = 0.04 (at node 11)
	maximum = 0.067 (at node 7)
Accepted packet rate average = 0.054125
	minimum = 0.045 (at node 7)
	maximum = 0.063 (at node 1)
Injected flit rate average = 0.054125
	minimum = 0.04 (at node 11)
	maximum = 0.067 (at node 7)
Accepted flit rate average= 0.054125
	minimum = 0.045 (at node 7)
	maximum = 0.063 (at node 1)
Injected packet length average = 1
Accepted packet length average = 1
Total in-flight flits = 15 (15 measured)
latency change    = 0.0227285
throughput change = 0.0161663
Class 0:
Packet latency average = 20.2446
	minimum = 7
	maximum = 50
Network latency average = 20.2446
	minimum = 7
	maximum = 50
Slowest packet = 1677
Flit latency average = 20.2717
	minimum = 7
	maximum = 50
Slowest flit = 1677
Fragmentation average = 0
	minimum = 0
	maximum = 0
Injected packet rate average = 0.0525833
	minimum = 0.0413333 (at node 0)
	maximum = 0.0606667 (at node 7)
Accepted packet rate average = 0.05275
	minimum = 0.042 (at node 12)
	maximum = 0.0626667 (at node 14)
Injected flit rate average = 0.0525833
	minimum = 0.0413333 (at node 0)
	maximum = 0.0606667 (at node 7)
Accepted flit rate average= 0.05275
	minimum = 0.042 (at node 12)
	maximum = 0.0626667 (at node 14)
Injected packet length average = 1
Accepted packet length average = 1
Total in-flight flits = 11 (11 measured)
latency change    = 0.00277695
throughput change = 0.0260664
Class 0:
Packet latency average = 20.2521
	minimum = 7
	maximum = 50
Network latency average = 20.2521
	minimum = 7
	maximum = 50
Slowest packet = 1677
Flit latency average = 20.2728
	minimum = 7
	maximum = 50
Slowest flit = 1677
Fragmentation average = 0
	minimum = 0
	maximum = 0
Injected packet rate average = 0.051625
	minimum = 0.0405 (at node 0)
	maximum = 0.0615 (at node 1)
Accepted packet rate average = 0.0516563
	minimum = 0.043 (at node 12)
	maximum = 0.059 (at node 1)
Injected flit rate average = 0.051625
	minimum = 0.0405 (at node 0)
	maximum = 0.0615 (at node 1)
Accepted flit rate average= 0.0516563
	minimum = 0.043 (at node 12)
	maximum = 0.059 (at node 1)
Injected packet length average = 1
Accepted packet length average = 1
Total in-flight flits = 14 (14 measured)
latency change    = 0.000371933
throughput change = 0.0211736
Draining all recorded packets ...
Draining remaining packets ...
Time taken is 3577 cycles
Class 0:
Packet latency average = 20.6173
	minimum = 7
	maximum = 59
Network latency average = 20.6148
	minimum = 7
	maximum = 59
Slowest packet = 2923
Flit latency average = 20.6148
	minimum = 7
	maximum = 59
Slowest flit = 2923
Fragmentation average = 0
	minimum = 0
	maximum = 0
Injected packet rate average = 0.053
	minimum = 0.038 (at node 1)
	maximum = 0.072 (at node 5)
Accepted packet rate average = 0.050625
	minimum = 0.038 (at node 2)
	maximum = 0.076 (at node 13)
Injected flit rate average = 0.053
	minimum = 0.038 (at node 1)
	maximum = 0.072 (at node 5)
Accepted flit rate average= 0.050625
	minimum = 0.038 (at node 2)
	maximum = 0.076 (at node 13)
Injected packet length average = 1
Accepted packet length average = 1
Total in-flight flits = 19 (0 measured)
latency change    = 1
throughput change = 1
Class 0:
Packet latency average = 20.2833
	minimum = 7
	maximum = 59
Network latency average = 20.282
	minimum = 7
	maximum = 59
Slowest packet = 2923
Flit latency average = 20.282
	minimum = 7
	maximum = 59
Slowest flit = 2923
Fragmentation average = 0
	minimum = 0
	maximum = 0
Injected packet rate average = 0.051875
	minimum = 0.039 (at node 11)
	maximum = 0.067 (at node 12)
Accepted packet rate average = 0.05075
	minimum = 0.039 (at node 7)
	maximum = 0.063 (at node 4)
Injected flit rate average = 0.051875
	minimum = 0.039 (at node 11)
	maximum = 0.067 (at node 12)
Accepted flit rate average= 0.05075
	minimum = 0.039 (at node 7)
	maximum = 0.063 (at node 4)
Injected packet length average = 1
Accepted packet length average = 1
Total in-flight flits = 18 (0 measured)
latency change    = 0.0164684
throughput change = 0.00246305
Class 0:
Packet latency average = 20.906
	minimum = 7
	maximum = 48
Network latency average = 20.906
	minimum = 7
	maximum = 48
Slowest packet = 3699
Flit latency average = 20.906
	minimum = 7
	maximum = 48
Slowest flit = 3699
Fragmentation average = 0
	minimum = 0
	maximum = 0
Injected packet rate average = 0.0565
	minimum = 0.03 (at node 10)
	maximum = 0.078 (at node 1)
Accepted packet rate average = 0.055875
	minimum = 0.044 (at node 10)
	maximum = 0.066 (at node 15)
Injected flit rate average = 0.0565
	minimum = 0.03 (at node 10)
	maximum = 0.078 (at node 1)
Accepted flit rate average= 0.055875
	minimum = 0.044 (at node 10)
	maximum = 0.066 (at node 15)
Injected packet length average = 1
Accepted packet length average = 1
Total in-flight flits = 23 (0 measured)
latency change    = 0.0297899
throughput change = 0.0917226
Warmed up ...Time used is 1500 cycles
Class 0:
Packet latency average = 19.7896
	minimum = 7
	maximum = 42
Network latency average = 19.7896
	minimum = 7
	maximum = 42
Slowest packet = 4205
Flit latency average = 20.1985
	minimum = 7
	maximum = 58
Slowest flit = 4141
Fragmentation average = 0
	minimum = 0
	maximum = 0
Injected packet rate average = 0.05
	minimum = 0.04 (at node 1)
	maximum = 0.064 (at node 3)
Accepted packet rate average = 0.051
	minimum = 0.03 (at node 7)
	maximum = 0.068 (at node 4)
Injected flit rate average = 0.05
	minimum = 0.04 (at node 1)
	maximum = 0.064 (at node 3)
Accepted flit rate average= 0.051
	minimum = 0.03 (at node 7)
	maximum = 0.068 (at node 4)
Injected packet length average = 1
Accepted packet length average = 1
Total in-flight flits = 15 (15 measured)
latency change    = 0.0564149
throughput change = 0.0955882
Class 0:
Packet latency average = 19.9381
	minimum = 7
	maximum = 46
Network latency average = 19.9381
	minimum = 7
	maximum = 46
Slowest packet = 4737
Flit latency average = 20.1427
	minimum = 7
	maximum = 58
Slowest flit = 4141
Fragmentation average = 0
	minimum = 0
	maximum = 0
Injected packet rate average = 0.0494375
	minimum = 0.04 (at node 8)
	maximum = 0.061 (at node 5)
Accepted packet rate average = 0.0499375
	minimum = 0.042 (at node 10)
	maximum = 0.058 (at node 4)
Injected flit rate average = 0.0494375
	minimum = 0.04 (at node 8)
	maximum = 0.061 (at node 5)
Accepted flit rate average= 0.0499375
	minimum = 0.042 (at node 10)
	maximum = 0.058 (at node 4)
Injected packet length average = 1
Accepted packet length average = 1
Total in-flight flits = 15 (15 measured)
latency change    = 0.00744974
throughput change = 0.0212766
Class 0:
Packet latency average = 20.3053
	minimum = 7
	maximum = 46
Network latency average = 20.3036
	minimum = 7
	maximum = 46
Slowest packet = 4737
Flit latency average = 20.4329
	minimum = 7
	maximum = 58
Slowest flit = 4141
Fragmentation average = 0
	minimum = 0
	maximum = 0
Injected packet rate average = 0.0495417
	minimum = 0.0393333 (at node 15)
	maximum = 0.0606667 (at node 5)
Accepted packet rate average = 0.0499583
	minimum = 0.04 (at node 10)
	maximum = 0.0593333 (at node 14)
Injected flit rate average = 0.0495417
	minimum = 0.0393333 (at node 15)
	maximum = 0.0606667 (at node 5)
Accepted flit rate average= 0.0499583
	minimum = 0.04 (at node 10)
	maximum = 0.0593333 (at node 14)
Injected packet length average = 1
Accepted packet length average = 1
Total in-flight flits = 13 (13 measured)
latency change    = 0.0180804
throughput change = 0.000417014
Class 0:
Packet latency average = 20.172
	minimum = 7
	maximum = 46
Network latency average = 20.1707
	minimum = 7
	maximum = 46
Slowest packet = 4737
Flit latency average = 20.2699
	minimum = 7
	maximum = 58
Slowest flit = 4141
Fragmentation average = 0
	minimum = 0
	maximum = 0
Injected packet rate average = 0.0494687
	minimum = 0.04 (at node 15)
	maximum = 0.058 (at node 2)
Accepted packet rate average = 0.0497812
	minimum = 0.042 (at node 10)
	maximum = 0.0555 (at node 4)
Injected flit rate average = 0.0494687
	minimum = 0.04 (at node 15)
	maximum = 0.058 (at node 2)
Accepted flit rate average= 0.0497812
	minimum = 0.042 (at node 10)
	maximum = 0.0555 (at node 4)
Injected packet length average = 1
Accepted packet length average = 1
Total in-flight flits = 13 (13 measured)
latency change    = 0.00660806
throughput change = 0.00355723
Draining all recorded packets ...
Draining remaining packets ...
Time taken is 3562 cycles
Class 0:
Packet latency average = 20.0976
	minimum = 7
	maximum = 43
Network latency average = 20.0976
	minimum = 7
	maximum = 43
Slowest packet = 6035
Flit latency average = 20.0976
	minimum = 7
	maximum = 43
Slowest flit = 6035
Fragmentation average = 0
	minimum = 0
	maximum = 0
Injected packet rate average = 0.048875
	minimum = 0.026 (at node 5)
	maximum = 0.07 (at node 3)
Accepted packet rate average = 0.047375
	minimum = 0.034 (at node 14)
	maximum = 0.056 (at node 9)
Injected flit rate average = 0.048875
	minimum = 0.026 (at node 5)
	maximum = 0.07 (at node 3)
Accepted flit rate average= 0.047375
	minimum = 0.034 (at node 14)
	maximum = 0.056 (at node 9)
Injected packet length average = 1
Accepted packet length average = 1
Total in-flight flits = 12 (0 measured)
latency change    = 1
throughput change = 1
Class 0:
Packet latency average = 20.6701
	minimum = 7
	maximum = 45
Network latency average = 20.6701
	minimum = 7
	maximum = 45
Slowest packet = 6193
Flit latency average = 20.6701
	minimum = 7
	maximum = 45
Slowest flit = 6193
Fragmentation average = 0
	minimum = 0
	maximum = 0
Injected packet rate average = 0.0489375
	minimum = 0.041 (at node 12)
	maximum = 0.063 (at node 4)
Accepted packet rate average = 0.0479375
	minimum = 0.04 (at node 10)
	maximum = 0.058 (at node 15)
Injected flit rate average = 0.0489375
	minimum = 0.041 (at node 12)
	maximum = 0.063 (at node 4)
Accepted flit rate average= 0.0479375
	minimum = 0.04 (at node 10)
	maximum = 0.058 (at node 15)
Injected packet length average = 1
Accepted packet length average = 1
Total in-flight flits = 16 (0 measured)
latency change    = 0.0276978
throughput change = 0.011734
Class 0:
Packet latency average = 20.6574
	minimum = 7
	maximum = 44
Network latency average = 20.6574
	minimum = 7
	maximum = 44
Slowest packet = 6772
Flit latency average = 20.6574
	minimum = 7
	maximum = 44
Slowest flit = 6772
Fragmentation average = 0
	minimum = 0
	maximum = 0
Injected packet rate average = 0.049875
	minimum = 0.034 (at node 4)
	maximum = 0.07 (at node 6)
Accepted packet rate average = 0.049625
	minimum = 0.03 (at node 12)
	maximum = 0.078 (at node 10)
Injected flit rate average = 0.049875
	minimum = 0.034 (at node 4)
	maximum = 0.07 (at node 6)
Accepted flit rate average= 0.049625
	minimum = 0.03 (at node 12)
	maximum = 0.078 (at node 10)
Injected packet length average = 1
Accepted packet length average = 1
Total in-flight flits = 18 (0 measured)
latency change    = 0.000615405
throughput change = 0.034005
Warmed up ...Time used is 1500 cycles
Class 0:
Packet latency average = 21.0054
	minimum = 7
	maximum = 64
Network latency average = 21.0054
	minimum = 7
	maximum = 64
Slowest packet = 6979
Flit latency average = 21.1221
	minimum = 7
	maximum = 64
Slowest flit = 6979
Fragmentation average = 0
	minimum = 0
	maximum = 0
Injected packet rate average = 0.047375
	minimum = 0.038 (at node 10)
	maximum = 0.058 (at node 12)
Accepted packet rate average = 0.048125
	minimum = 0.03 (at node 7)
	maximum = 0.072 (at node 14)
Injected flit rate average = 0.047375
	minimum = 0.038 (at node 10)
	maximum = 0.058 (at node 12)
Accepted flit rate average= 0.048125
	minimum = 0.03 (at node 7)
	maximum = 0.072 (at node 14)
Injected packet length average = 1
Accepted packet length average = 1
Total in-flight flits = 12 (12 measured)
latency change    = 0.016568
throughput change = 0.0311688
Class 0:
Packet latency average = 20.6492
	minimum = 7
	maximum = 64
Network latency average = 20.6492
	minimum = 7
	maximum = 64
Slowest packet = 6979
Flit latency average = 20.7148
	minimum = 7
	maximum = 64
Slowest flit = 6979
Fragmentation average = 0
	minimum = 0
	maximum = 0
Injected packet rate average = 0.0485
	minimum = 0.04 (at node 3)
	maximum = 0.061 (at node 14)
Accepted packet rate average = 0.048875
	minimum = 0.039 (at node 3)
	maximum = 0.061 (at node 5)
Injected flit rate average = 0.0485
	minimum = 0.04 (at node 3)
	maximum = 0.061 (at node 14)
Accepted flit rate average= 0.048875
	minimum = 0.039 (at node 3)
	maximum = 0.061 (at node 5)
Injected packet length average = 1
Accepted packet length average = 1
Total in-flight flits = 12 (12 measured)
latency change    = 0.0172517
throughput change = 0.0153453
Class 0:
Packet latency average = 20.2786
	minimum = 7
	maximum = 64
Network latency average = 20.2786
	minimum = 7
	maximum = 64
Slowest packet = 6979
Flit latency average = 20.3274
	minimum = 7
	maximum = 64
Slowest flit = 6979
Fragmentation average = 0
	minimum = 0
	maximum = 0
Injected packet rate average = 0.0492917
	minimum = 0.0373333 (at node 3)
	maximum = 0.0633333 (at node 14)
Accepted packet rate average = 0.0495
	minimum = 0.0393333 (at node 15)
	maximum = 0.06 (at node 5)
Injected flit rate average = 0.0492917
	minimum = 0.0373333 (at node 3)
	maximum = 0.0633333 (at node 14)
Accepted flit rate average= 0.0495
	minimum = 0.0393333 (at node 15)
	maximum = 0.06 (at node 5)
Injected packet length average = 1
Accepted packet length average = 1
Total in-flight flits = 13 (13 measured)
latency change    = 0.0182745
throughput change = 0.0126263
Draining all recorded packets ...
Draining remaining packets ...
Time taken is 3058 cycles
Class 0:
Packet latency average = 20.1058
	minimum = 7
	maximum = 50
Network latency average = 20.1058
	minimum = 7
	maximum = 50
Slowest packet = 8254
Flit latency average = 20.1058
	minimum = 7
	maximum = 50
Slowest flit = 8254
Fragmentation average = 0
	minimum = 0
	maximum = 0
Injected packet rate average = 0.049
	minimum = 0.038 (at node 15)
	maximum = 0.068 (at node 9)
Accepted packet rate average = 0.04725
	minimum = 0.034 (at node 8)
	maximum = 0.066 (at node 10)
Injected flit rate average = 0.049
	minimum = 0.038 (at node 15)
	maximum = 0.068 (at node 9)
Accepted flit rate average= 0.04725
	minimum = 0.034 (at node 8)
	maximum = 0.066 (at node 10)
Injected packet length average = 1
Accepted packet length average = 1
Total in-flight flits = 14 (0 measured)
latency change    = 1
throughput change = 1
Class 0:
Packet latency average = 20.0735
	minimum = 7
	maximum = 50
Network latency average = 20.0735
	minimum = 7
	maximum = 50
Slowest packet = 8254
Flit latency average = 20.0735
	minimum = 7
	maximum = 50
Slowest flit = 8254
Fragmentation average = 0
	minimum = 0
	maximum = 0
Injected packet rate average = 0.048875
	minimum = 0.038 (at node 7)
	maximum = 0.059 (at node 9)
Accepted packet rate average = 0.047625
	minimum = 0.036 (at node 1)
	maximum = 0.057 (at node 14)
Injected flit rate average = 0.048875
	minimum = 0.038 (at node 7)
	maximum = 0.059 (at node 9)
Accepted flit rate average= 0.047625
	minimum = 0.036 (at node 1)
	maximum = 0.057 (at node 14)
Injected packet length average = 1
Accepted packet length average = 1
Total in-flight flits = 20 (0 measured)
latency change    = 0.00161055
throughput change = 0.00787402
Class 0:
Packet latency average = 20.408
	minimum = 7
	maximum = 61
Network latency average = 20.408
	minimum = 7
	maximum = 61
Slowest packet = 9065
Flit latency average = 20.408
	minimum = 7
	maximum = 61
Slowest flit = 9065
Fragmentation average = 0
	minimum = 0
	maximum = 0
Injected packet rate average = 0.04975
	minimum = 0.036 (at node 13)
	maximum = 0.072 (at node 9)
Accepted packet rate average = 0.05025
	minimum = 0.03 (at node 15)
	maximum = 0.072 (at node 5)
Injected flit rate average = 0.04975
	minimum = 0.036 (at node 13)
	maximum = 0.072 (at node 9)
Accepted flit rate average= 0.05025
	minimum = 0.03 (at node 15)
	maximum = 0.072 (at node 5)
Injected packet length average = 1
Accepted packet length average = 1
Total in-flight flits = 16 (0 measured)
latency change    = 0.0163892
throughput change = 0.0522388
Warmed up ...Time used is 1500 cycles
Class 0:
Packet latency average = 20.8324
	minimum = 7
	maximum = 43
Network latency average = 20.8324
	minimum = 7
	maximum = 43
Slowest packet = 9589
Flit latency average = 20.9064
	minimum = 7
	maximum = 43
Slowest flit = 9589
Fragmentation average = 0
	minimum = 0
	maximum = 0
Injected packet rate average = 0.0475
	minimum = 0.024 (at node 11)
	maximum = 0.072 (at node 4)
Accepted packet rate average = 0.04675
	minimum = 0.032 (at node 4)
	maximum = 0.066 (at node 8)
Injected flit rate average = 0.0475
	minimum = 0.024 (at node 11)
	maximum = 0.072 (at node 4)
Accepted flit rate average= 0.04675
	minimum = 0.032 (at node 4)
	maximum = 0.066 (at node 8)
Injected packet length average = 1
Accepted packet length average = 1
Total in-flight flits = 22 (22 measured)
latency change    = 0.0203741
throughput change = 0.0748663
Class 0:
Packet latency average = 20.6851
	minimum = 7
	maximum = 58
Network latency average = 20.6851
	minimum = 7
	maximum = 58
Slowest packet = 9881
Flit latency average = 20.7249
	minimum = 7
	maximum = 58
Slowest flit = 9881
Fragmentation average = 0
	minimum = 0
	maximum = 0
Injected packet rate average = 0.04675
	minimum = 0.033 (at node 11)
	maximum = 0.068 (at node 4)
Accepted packet rate average = 0.04725
	minimum = 0.03 (at node 4)
	maximum = 0.067 (at node 8)
Injected flit rate average = 0.04675
	minimum = 0.033 (at node 11)
	maximum = 0.068 (at node 4)
Accepted flit rate average= 0.04725
	minimum = 0.03 (at node 4)
	maximum = 0.067 (at node 8)
Injected packet length average = 1
Accepted packet length average = 1
Total in-flight flits = 8 (8 measured)
latency change    = 0.00711947
throughput change = 0.010582
Class 0:
Packet latency average = 20.7201
	minimum = 7
	maximum = 58
Network latency average = 20.7201
	minimum = 7
	maximum = 58
Slowest packet = 9881
Flit latency average = 20.7457
	minimum = 7
	maximum = 58
Slowest flit = 9881
Fragmentation average = 0
	minimum = 0
	maximum = 0
Injected packet rate average = 0.0479583
	minimum = 0.0353333 (at node 11)
	maximum = 0.0586667 (at node 4)
Accepted packet rate average = 0.048
	minimum = 0.036 (at node 4)
	maximum = 0.0613333 (at node 8)
Injected flit rate average = 0.0479583
	minimum = 0.0353333 (at node 11)
	maximum = 0.0586667 (at node 4)
Accepted flit rate average= 0.048
	minimum = 0.036 (at node 4)
	maximum = 0.0613333 (at node 8)
Injected packet length average = 1
Accepted packet length average = 1
Total in-flight flits = 15 (15 measured)
latency change    = 0.00168606
throughput change = 0.015625
Class 0:
Packet latency average = 20.5395
	minimum = 7
	maximum = 58
Network latency average = 20.5395
	minimum = 7
	maximum = 58
Slowest packet = 9881
Flit latency average = 20.5605
	minimum = 7
	maximum = 58
Slowest flit = 9881
Fragmentation average = 0
	minimum = 0
	maximum = 0
Injected packet rate average = 0.0479687
	minimum = 0.0375 (at node 11)
	maximum = 0.055 (at node 4)
Accepted packet rate average = 0.048
	minimum = 0.0385 (at node 15)
	maximum = 0.0565 (at node 8)
Injected flit rate average = 0.0479687
	minimum = 0.0375 (at node 11)
	maximum = 0.055 (at node 4)
Accepted flit rate average= 0.048
	minimum = 0.0385 (at node 15)
	maximum = 0.0565 (at node 8)
Injected packet length average = 1
Accepted packet length average = 1
Total in-flight flits = 15 (15 measured)
latency change    = 0.00879267
throughput change = 0
Draining all recorded packets ...
Draining remaining packets ...
Time taken is 3556 cycles
Class 0:
Packet latency average = 19.7011
	minimum = 7
	maximum = 50
Network latency average = 19.7011
	minimum = 7
	maximum = 50
Slowest packet = 11122
Flit latency average = 19.7011
	minimum = 7
	maximum = 50
Slowest flit = 11122
Fragmentation average = 0
	minimum = 0
	maximum = 0
Injected packet rate average = 0.046375
	minimum = 0.034 (at node 2)
	maximum = 0.058 (at node 12)
Accepted packet rate average = 0.04475
	minimum = 0.026 (at node 7)
	maximum = 0.058 (at node 1)
Injected flit rate average = 0.046375
	minimum = 0.034 (at node 2)
	maximum = 0.058 (at node 12)
Accepted flit rate average= 0.04475
	minimum = 0.026 (at node 7)
	maximum = 0.058 (at node 1)
Injected packet length average = 1
Accepted packet length average = 1
Total in-flight flits = 13 (0 measured)
latency change    = 1
throughput change = 1
Class 0:
Packet latency average = 20.3944
	minimum = 7
	maximum = 50
Network latency average = 20.3944
	minimum = 7
	maximum = 50
Slowest packet = 11122
Flit latency average = 20.3944
	minimum = 7
	maximum = 50
Slowest flit = 11122
Fragmentation average = 0
	minimum = 0
	maximum = 0
Injected packet rate average = 0.0475625
	minimum = 0.042 (at node 5)
	maximum = 0.056 (at node 12)
Accepted packet rate average = 0.04675
	minimum = 0.036 (at node 5)
	maximum = 0.055 (at node 1)
Injected flit rate average = 0.0475625
	minimum = 0.042 (at node 5)
	maximum = 0.056 (at node 12)
Accepted flit rate average= 0.04675
	minimum = 0.036 (at node 5)
	maximum = 0.055 (at node 1)
Injected packet length average = 1
Accepted packet length average = 1
Total in-flight flits = 13 (0 measured)
latency change    = 0.0339931
throughput change = 0.0427807
Class 0:
Packet latency average = 20.6498
	minimum = 7
	maximum = 53
Network latency average = 20.6498
	minimum = 7
	maximum = 53
Slowest packet = 12008
Flit latency average = 20.6498
	minimum = 7
	maximum = 53
Slowest flit = 12008
Fragmentation average = 0
	minimum = 0
	maximum = 0
Injected packet rate average = 0.054
	minimum = 0.036 (at node 15)
	maximum = 0.066 (at node 4)
Accepted packet rate average = 0.05425
	minimum = 0.04 (at node 0)
	maximum = 0.072 (at node 6)
Injected flit rate average = 0.054
	minimum = 0.036 (at node 15)
	maximum = 0.066 (at node 4)
Accepted flit rate average= 0.05425
	minimum = 0.04 (at node 0)
	maximum = 0.072 (at node 6)
Injected packet length average = 1
Accepted packet length average = 1
Total in-flight flits = 11 (0 measured)
latency change    = 0.0123674
throughput change = 0.138249
Warmed up ...Time used is 1500 cycles
Class 0:
Packet latency average = 20.2005
	minimum = 7
	maximum = 51
Network latency average = 20.2005
	minimum = 7
	maximum = 51
Slowest packet = 12192
Flit latency average = 20.3671
	minimum = 7
	maximum = 51
Slowest flit = 12192
Fragmentation average = 0
	minimum = 0
	maximum = 0
Injected packet rate average = 0.04975
	minimum = 0.034 (at node 9)
	maximum = 0.066 (at node 7)
Accepted packet rate average = 0.049375
	minimum = 0.032 (at node 0)
	maximum = 0.066 (at node 10)
Injected flit rate average = 0.04975
	minimum = 0.034 (at node 9)
	maximum = 0.066 (at node 7)
Accepted flit rate average= 0.049375
	minimum = 0.032 (at node 0)
	maximum = 0.066 (at node 10)
Injected packet length average = 1
Accepted packet length average = 1
Total in-flight flits = 14 (14 measured)
latency change    = 0.0222395
throughput change = 0.0987342
Class 0:
Packet latency average = 19.9509
	minimum = 7
	maximum = 53
Network latency average = 19.9509
	minimum = 7
	maximum = 53
Slowest packet = 12805
Flit latency average = 20.036
	minimum = 7
	maximum = 53
Slowest flit = 12805
Fragmentation average = 0
	minimum = 0
	maximum = 0
Injected packet rate average = 0.0506875
	minimum = 0.04 (at node 9)
	maximum = 0.067 (at node 2)
Accepted packet rate average = 0.0503125
	minimum = 0.039 (at node 2)
	maximum = 0.064 (at node 4)
Injected flit rate average = 0.0506875
	minimum = 0.04 (at node 9)
	maximum = 0.067 (at node 2)
Accepted flit rate average= 0.0503125
	minimum = 0.039 (at node 2)
	maximum = 0.064 (at node 4)
Injected packet length average = 1
Accepted packet length average = 1
Total in-flight flits = 17 (17 measured)
latency change    = 0.0125127
throughput change = 0.0186335
Class 0:
Packet latency average = 20.1422
	minimum = 7
	maximum = 73
Network latency average = 20.1422
	minimum = 7
	maximum = 73
Slowest packet = 12980
Flit latency average = 20.1986
	minimum = 7
	maximum = 73
Slowest flit = 12980
Fragmentation average = 0
	minimum = 0
	maximum = 0
Injected packet rate average = 0.0492917
	minimum = 0.0426667 (at node 9)
	maximum = 0.0626667 (at node 15)
Accepted packet rate average = 0.0490833
	minimum = 0.036 (at node 0)
	maximum = 0.0633333 (at node 4)
Injected flit rate average = 0.0492917
	minimum = 0.0426667 (at node 9)
	maximum = 0.0626667 (at node 15)
Accepted flit rate average= 0.0490833
	minimum = 0.036 (at node 0)
	maximum = 0.0633333 (at node 4)
Injected packet length average = 1
Accepted packet length average = 1
Total in-flight flits = 16 (16 measured)
latency change    = 0.0095006
throughput change = 0.0250424
Class 0:
Packet latency average = 20.4895
	minimum = 7
	maximum = 73
Network latency average = 20.4895
	minimum = 7
	maximum = 73
Slowest packet = 12980
Flit latency average = 20.529
	minimum = 7
	maximum = 73
Slowest flit = 12980
Fragmentation average = 0
	minimum = 0
	maximum = 0
Injected packet rate average = 0.0494062
	minimum = 0.044 (at node 8)
	maximum = 0.061 (at node 15)
Accepted packet rate average = 0.0495
	minimum = 0.04 (at node 2)
	maximum = 0.0605 (at node 10)
Injected flit rate average = 0.0494062
	minimum = 0.044 (at node 8)
	maximum = 0.061 (at node 15)
Accepted flit rate average= 0.0495
	minimum = 0.04 (at node 2)
	maximum = 0.0605 (at node 10)
Injected packet length average = 1
Accepted packet length average = 1
Total in-flight flits = 8 (8 measured)
latency change    = 0.0169484
throughput change = 0.00841751
Draining all recorded packets ...
Draining remaining packets ...
Time taken is 3566 cycles
Class 0:
Packet latency average = 20.4082
	minimum = 7
	maximum = 45
Network latency average = 20.4082
	minimum = 7
	maximum = 45
Slowest packet = 13771
Flit latency average = 20.4082
	minimum = 7
	maximum = 45
Slowest flit = 13771
Fragmentation average = 0
	minimum = 0
	maximum = 0
Injected packet rate average = 0.047375
	minimum = 0.03 (at node 8)
	maximum = 0.064 (at node 0)
Accepted packet rate average = 0.045625
	minimum = 0.036 (at node 1)
	maximum = 0.064 (at node 12)
Injected flit rate average = 0.047375
	minimum = 0.03 (at node 8)
	maximum = 0.064 (at node 0)
Accepted flit rate average= 0.045625
	minimum = 0.036 (at node 1)
	maximum = 0.064 (at node 12)
Injected packet length average = 1
Accepted packet length average = 1
Total in-flight flits = 14 (0 measured)
latency change    = 1
throughput change = 1
Class 0:
Packet latency average = 20.5472
	minimum = 7
	maximum = 66
Network latency average = 20.5472
	minimum = 7
	maximum = 66
Slowest packet = 14383
Flit latency average = 20.5472
	minimum = 7
	maximum = 66
Slowest flit = 14383
Fragmentation average = 0
	minimum = 0
	maximum = 0
Injected packet rate average = 0.0491875
	minimum = 0.04 (at node 8)
	maximum = 0.059 (at node 14)
Accepted packet rate average = 0.0483125
	minimum = 0.034 (at node 13)
	maximum = 0.064 (at node 12)
Injected flit rate average = 0.0491875
	minimum = 0.04 (at node 8)
	maximum = 0.059 (at node 14)
Accepted flit rate average= 0.0483125
	minimum = 0.034 (at node 13)
	maximum = 0.064 (at node 12)
Injected packet length average = 1
Accepted packet length average = 1
Total in-flight flits = 14 (0 measured)
latency change    = 0.00676488
throughput change = 0.0556274
Class 0:
Packet latency average = 20.237
	minimum = 7
	maximum = 45
Network latency average = 20.237
	minimum = 7
	maximum = 45
Slowest packet = 14857
Flit latency average = 20.237
	minimum = 7
	maximum = 45
Slowest flit = 14857
Fragmentation average = 0
	minimum = 0
	maximum = 0
Injected packet rate average = 0.05025
	minimum = 0.038 (at node 15)
	maximum = 0.062 (at node 14)
Accepted packet rate average = 0.050625
	minimum = 0.038 (at node 13)
	maximum = 0.07 (at node 6)
Injected flit rate average = 0.05025
	minimum = 0.038 (at node 15)
	maximum = 0.062 (at node 14)
Accepted flit rate average= 0.050625
	minimum = 0.038 (at node 13)
	maximum = 0.07 (at node 6)
Injected packet length average = 1
Accepted packet length average = 1
Total in-flight flits = 11 (0 measured)
latency change    = 0.0153274
throughput change = 0.045679
Warmed up ...Time used is 1500 cycles
Class 0:
Packet latency average = 20.2222
	minimum = 7
	maximum = 42
Network latency average = 20.2222
	minimum = 7
	maximum = 42
Slowest packet = 14996
Flit latency average = 20.3538
	minimum = 7
	maximum = 42
Slowest flit = 14996
Fragmentation average = 0
	minimum = 0
	maximum = 0
Injected packet rate average = 0.050875
	minimum = 0.034 (at node 8)
	maximum = 0.07 (at node 7)
Accepted packet rate average = 0.050875
	minimum = 0.03 (at node 11)
	maximum = 0.076 (at node 4)
Injected flit rate average = 0.050875
	minimum = 0.034 (at node 8)
	maximum = 0.07 (at node 7)
Accepted flit rate average= 0.050875
	minimum = 0.03 (at node 11)
	maximum = 0.076 (at node 4)
Injected packet length average = 1
Accepted packet length average = 1
Total in-flight flits = 11 (11 measured)
latency change    = 0.000732601
throughput change = 0.004914
Class 0:
Packet latency average = 20.188
	minimum = 7
	maximum = 50
Network latency average = 20.188
	minimum = 7
	maximum = 50
Slowest packet = 15486
Flit latency average = 20.256
	minimum = 7
	maximum = 50
Slowest flit = 15486
Fragmentation average = 0
	minimum = 0
	maximum = 0
Injected packet rate average = 0.049875
	minimum = 0.034 (at node 8)
	maximum = 0.071 (at node 7)
Accepted packet rate average = 0.0495625
	minimum = 0.03 (at node 2)
	maximum = 0.067 (at node 4)
Injected flit rate average = 0.049875
	minimum = 0.034 (at node 8)
	maximum = 0.071 (at node 7)
Accepted flit rate average= 0.0495625
	minimum = 0.03 (at node 2)
	maximum = 0.067 (at node 4)
Injected packet length average = 1
Accepted packet length average = 1
Total in-flight flits = 16 (16 measured)
latency change    = 0.00169619
throughput change = 0.0264817
Class 0:
Packet latency average = 20.4601
	minimum = 7
	maximum = 50
Network latency average = 20.4601
	minimum = 7
	maximum = 50
Slowest packet = 15486
Flit latency average = 20.5029
	minimum = 7
	maximum = 50
Slowest flit = 15486
Fragmentation average = 0
	minimum = 0
	maximum = 0
Injected packet rate average = 0.05
	minimum = 0.0353333 (at node 8)
	maximum = 0.064 (at node 7)
Accepted packet rate average = 0.0495417
	minimum = 0.0346667 (at node 2)
	maximum = 0.0613333 (at node 4)
Injected flit rate average = 0.05
	minimum = 0.0353333 (at node 8)
	maximum = 0.064 (at node 7)
Accepted flit rate average= 0.0495417
	minimum = 0.0346667 (at node 2)
	maximum = 0.0613333 (at node 4)
Injected packet length average = 1
Accepted packet length average = 1
Total in-flight flits = 22 (22 measured)
latency change    = 0.0133001
throughput change = 0.000420521
Draining all recorded packets ...
Draining remaining packets ...
Time taken is 3070 cycles
Class 0:
Packet latency average = 19.6179
	minimum = 7
	maximum = 54
Network latency average = 19.6179
	minimum = 7
	maximum = 54
Slowest packet = 16321
Flit latency average = 19.6179
	minimum = 7
	maximum = 54
Slowest flit = 16321
Fragmentation average = 0
	minimum = 0
	maximum = 0
Injected packet rate average = 0.052375
	minimum = 0.038 (at node 8)
	maximum = 0.068 (at node 10)
Accepted packet rate average = 0.050375
	minimum = 0.026 (at node 0)
	maximum = 0.072 (at node 2)
Injected flit rate average = 0.052375
	minimum = 0.038 (at node 8)
	maximum = 0.068 (at node 10)
Accepted flit rate average= 0.050375
	minimum = 0.026 (at node 0)
	maximum = 0.072 (at node 2)
Injected packet length average = 1
Accepted packet length average = 1
Total in-flight flits = 16 (0 measured)
latency change    = 1
throughput change = 1
Class 0:
Packet latency average = 19.788
	minimum = 7
	maximum = 54
Network latency average = 19.788
	minimum = 7
	maximum = 54
Slowest packet = 16321
Flit latency average = 19.788
	minimum = 7
	maximum = 54
Slowest flit = 16321
Fragmentation average = 0
	minimum = 0
	maximum = 0
Injected packet rate average = 0.04925
	minimum = 0.037 (at node 3)
	maximum = 0.062 (at node 2)
Accepted packet rate average = 0.04775
	minimum = 0.034 (at node 0)
	maximum = 0.059 (at node 2)
Injected flit rate average = 0.04925
	minimum = 0.037 (at node 3)
	maximum = 0.062 (at node 2)
Accepted flit rate average= 0.04775
	minimum = 0.034 (at node 0)
	maximum = 0.059 (at node 2)
Injected packet length average = 1
Accepted packet length average = 1
Total in-flight flits = 24 (0 measured)
latency change    = 0.00859574
throughput change = 0.0549738
Class 0:
Packet latency average = 21.5344
	minimum = 7
	maximum = 73
Network latency average = 21.5344
	minimum = 7
	maximum = 73
Slowest packet = 17099
Flit latency average = 21.5344
	minimum = 7
	maximum = 73
Slowest flit = 17099
Fragmentation average = 0
	minimum = 0
	maximum = 0
Injected packet rate average = 0.05275
	minimum = 0.018 (at node 6)
	maximum = 0.074 (at node 12)
Accepted packet rate average = 0.0545
	minimum = 0.038 (at node 2)
	maximum = 0.08 (at node 3)
Injected flit rate average = 0.05275
	minimum = 0.018 (at node 6)
	maximum = 0.074 (at node 12)
Accepted flit rate average= 0.0545
	minimum = 0.038 (at node 2)
	maximum = 0.08 (at node 3)
Injected packet length average = 1
Accepted packet length average = 1
Total in-flight flits = 10 (0 measured)
latency change    = 0.0811003
throughput change = 0.123853
Warmed up ...Time used is 1500 cycles
Class 0:
Packet latency average = 20.8929
	minimum = 7
	maximum = 53
Network latency average = 20.8852
	minimum = 7
	maximum = 53
Slowest packet = 17460
Flit latency average = 20.9502
	minimum = 7
	maximum = 53
Slowest flit = 17460
Fragmentation average = 0
	minimum = 0
	maximum = 0
Injected packet rate average = 0.051375
	minimum = 0.03 (at node 5)
	maximum = 0.064 (at node 1)
Accepted packet rate average = 0.05025
	minimum = 0.032 (at node 13)
	maximum = 0.072 (at node 7)
Injected flit rate average = 0.051375
	minimum = 0.03 (at node 5)
	maximum = 0.064 (at node 1)
Accepted flit rate average= 0.05025
	minimum = 0.032 (at node 13)
	maximum = 0.072 (at node 7)
Injected packet length average = 1
Accepted packet length average = 1
Total in-flight flits = 19 (19 measured)
latency change    = 0.0307065
throughput change = 0.0845771
Class 0:
Packet latency average = 20.5268
	minimum = 7
	maximum = 53
Network latency average = 20.5231
	minimum = 7
	maximum = 53
Slowest packet = 17460
Flit latency average = 20.5598
	minimum = 7
	maximum = 53
Slowest flit = 17460
Fragmentation average = 0
	minimum = 0
	maximum = 0
Injected packet rate average = 0.0513125
	minimum = 0.04 (at node 5)
	maximum = 0.063 (at node 2)
Accepted packet rate average = 0.0506875
	minimum = 0.04 (at node 5)
	maximum = 0.067 (at node 7)
Injected flit rate average = 0.0513125
	minimum = 0.04 (at node 5)
	maximum = 0.063 (at node 2)
Accepted flit rate average= 0.0506875
	minimum = 0.04 (at node 5)
	maximum = 0.067 (at node 7)
Injected packet length average = 1
Accepted packet length average = 1
Total in-flight flits = 20 (20 measured)
latency change    = 0.0178311
throughput change = 0.00863132
Class 0:
Packet latency average = 20.7912
	minimum = 7
	maximum = 53
Network latency average = 20.7887
	minimum = 7
	maximum = 53
Slowest packet = 17460
Flit latency average = 20.8114
	minimum = 7
	maximum = 53
Slowest flit = 17460
Fragmentation average = 0
	minimum = 0
	maximum = 0
Injected packet rate average = 0.0498333
	minimum = 0.0433333 (at node 5)
	maximum = 0.06 (at node 9)
Accepted packet rate average = 0.0497083
	minimum = 0.0373333 (at node 5)
	maximum = 0.064 (at node 7)
Injected flit rate average = 0.0498333
	minimum = 0.0433333 (at node 5)
	maximum = 0.06 (at node 9)
Accepted flit rate average= 0.0497083
	minimum = 0.0373333 (at node 5)
	maximum = 0.064 (at node 7)
Injected packet length average = 1
Accepted packet length average = 1
Total in-flight flits = 13 (13 measured)
latency change    = 0.0127153
throughput change = 0.0196982
Class 0:
Packet latency average = 20.5796
	minimum = 7
	maximum = 53
Network latency average = 20.5777
	minimum = 7
	maximum = 53
Slowest packet = 17460
Flit latency average = 20.5959
	minimum = 7
	maximum = 53
Slowest flit = 17460
Fragmentation average = 0
	minimum = 0
	maximum = 0
Injected packet rate average = 0.0502812
	minimum = 0.0445 (at node 14)
	maximum = 0.059 (at node 2)
Accepted packet rate average = 0.0501875
	minimum = 0.0405 (at node 15)
	maximum = 0.062 (at node 3)
Injected flit rate average = 0.0502812
	minimum = 0.0445 (at node 14)
	maximum = 0.059 (at node 2)
Accepted flit rate average= 0.0501875
	minimum = 0.0405 (at node 15)
	maximum = 0.062 (at node 3)
Injected packet length average = 1
Accepted packet length average = 1
Total in-flight flits = 13 (13 measured)
latency change    = 0.0102837
throughput change = 0.00954753
Draining all recorded packets ...
Draining remaining packets ...
Time taken is 3569 cycles
Class 0:
Packet latency average = 18.801
	minimum = 7
	maximum = 37
Network latency average = 18.801
	minimum = 7
	maximum = 37
Slowest packet = 18993
Flit latency average = 18.801
	minimum = 7
	maximum = 37
Slowest flit = 18993
Fragmentation average = 0
	minimum = 0
	maximum = 0
Injected packet rate average = 0.051625
	minimum = 0.028 (at node 0)
	maximum = 0.066 (at node 9)
Accepted packet rate average = 0.049
	minimum = 0.028 (at node 3)
	maximum = 0.064 (at node 6)
Injected flit rate average = 0.051625
	minimum = 0.028 (at node 0)
	maximum = 0.066 (at node 9)
Accepted flit rate average= 0.049
	minimum = 0.028 (at node 3)
	maximum = 0.064 (at node 6)
Injected packet length average = 1
Accepted packet length average = 1
Total in-flight flits = 21 (0 measured)
latency change    = 1
throughput change = 1
Class 0:
Packet latency average = 19.488
	minimum = 7
	maximum = 46
Network latency average = 19.488
	minimum = 7
	maximum = 46
Slowest packet = 19725
Flit latency average = 19.488
	minimum = 7
	maximum = 46
Slowest flit = 19725
Fragmentation average = 0
	minimum = 0
	maximum = 0
Injected packet rate average = 0.0533125
	minimum = 0.042 (at node 13)
	maximum = 0.07 (at node 5)
Accepted packet rate average = 0.051875
	minimum = 0.036 (at node 3)
	maximum = 0.066 (at node 5)
Injected flit rate average = 0.0533125
	minimum = 0.042 (at node 13)
	maximum = 0.07 (at node 5)
Accepted flit rate average= 0.051875
	minimum = 0.036 (at node 3)
	maximum = 0.066 (at node 5)
Injected packet length average = 1
Accepted packet length average = 1
Total in-flight flits = 23 (0 measured)
latency change    = 0.035249
throughput change = 0.0554217
Class 0:
Packet latency average = 21.6082
	minimum = 7
	maximum = 69
Network latency average = 21.6082
	minimum = 7
	maximum = 69
Slowest packet = 19864
Flit latency average = 21.6082
	minimum = 7
	maximum = 69
Slowest flit = 19864
Fragmentation average = 0
	minimum = 0
	maximum = 0
Injected packet rate average = 0.047125
	minimum = 0.024 (at node 6)
	maximum = 0.062 (at node 11)
Accepted packet rate average = 0.0485
	minimum = 0.04 (at node 13)
	maximum = 0.06 (at node 7)
Injected flit rate average = 0.047125
	minimum = 0.024 (at node 6)
	maximum = 0.062 (at node 11)
Accepted flit rate average= 0.0485
	minimum = 0.04 (at node 13)
	maximum = 0.06 (at node 7)
Injected packet length average = 1
Accepted packet length average = 1
Total in-flight flits = 12 (0 measured)
latency change    = 0.0981244
throughput change = 0.0695876
Warmed up ...Time used is 1500 cycles
Class 0:
Packet latency average = 19.6284
	minimum = 7
	maximum = 45
Network latency average = 19.6284
	minimum = 7
	maximum = 45
Slowest packet = 20440
Flit latency average = 19.8016
	minimum = 7
	maximum = 45
Slowest flit = 20440
Fragmentation average = 0
	minimum = 0
	maximum = 0
Injected packet rate average = 0.047875
	minimum = 0.024 (at node 14)
	maximum = 0.088 (at node 10)
Accepted packet rate average = 0.04725
	minimum = 0.032 (at node 7)
	maximum = 0.066 (at node 5)
Injected flit rate average = 0.047875
	minimum = 0.024 (at node 14)
	maximum = 0.088 (at node 10)
Accepted flit rate average= 0.04725
	minimum = 0.032 (at node 7)
	maximum = 0.066 (at node 5)
Injected packet length average = 1
Accepted packet length average = 1
Total in-flight flits = 17 (17 measured)
latency change    = 0.100866
throughput change = 0.026455
Class 0:
Packet latency average = 20.2584
	minimum = 7
	maximum = 47
Network latency average = 20.2584
	minimum = 7
	maximum = 47
Slowest packet = 20595
Flit latency average = 20.3321
	minimum = 7
	maximum = 47
Slowest flit = 20595
Fragmentation average = 0
	minimum = 0
	maximum = 0
Injected packet rate average = 0.0494375
	minimum = 0.037 (at node 2)
	maximum = 0.078 (at node 10)
Accepted packet rate average = 0.049125
	minimum = 0.034 (at node 7)
	maximum = 0.064 (at node 5)
Injected flit rate average = 0.0494375
	minimum = 0.037 (at node 2)
	maximum = 0.078 (at node 10)
Accepted flit rate average= 0.049125
	minimum = 0.034 (at node 7)
	maximum = 0.064 (at node 5)
Injected packet length average = 1
Accepted packet length average = 1
Total in-flight flits = 17 (17 measured)
latency change    = 0.0310974
throughput change = 0.0381679
Class 0:
Packet latency average = 20.3133
	minimum = 7
	maximum = 54
Network latency average = 20.3133
	minimum = 7
	maximum = 54
Slowest packet = 21256
Flit latency average = 20.36
	minimum = 7
	maximum = 54
Slowest flit = 21256
Fragmentation average = 0
	minimum = 0
	maximum = 0
Injected packet rate average = 0.0515
	minimum = 0.04 (at node 15)
	maximum = 0.0653333 (at node 10)
Accepted packet rate average = 0.0510417
	minimum = 0.0426667 (at node 10)
	maximum = 0.0673333 (at node 4)
Injected flit rate average = 0.0515
	minimum = 0.04 (at node 15)
	maximum = 0.0653333 (at node 10)
Accepted flit rate average= 0.0510417
	minimum = 0.0426667 (at node 10)
	maximum = 0.0673333 (at node 4)
Injected packet length average = 1
Accepted packet length average = 1
Total in-flight flits = 23 (23 measured)
latency change    = 0.00270143
throughput change = 0.037551
Class 0:
Packet latency average = 20.33
	minimum = 7
	maximum = 54
Network latency average = 20.33
	minimum = 7
	maximum = 54
Slowest packet = 21256
Flit latency average = 20.3653
	minimum = 7
	maximum = 54
Slowest flit = 21256
Fragmentation average = 0
	minimum = 0
	maximum = 0
Injected packet rate average = 0.0506875
	minimum = 0.0425 (at node 2)
	maximum = 0.059 (at node 10)
Accepted packet rate average = 0.0504687
	minimum = 0.0435 (at node 3)
	maximum = 0.063 (at node 4)
Injected flit rate average = 0.0506875
	minimum = 0.0425 (at node 2)
	maximum = 0.059 (at node 10)
Accepted flit rate average= 0.0504687
	minimum = 0.0435 (at node 3)
	maximum = 0.063 (at node 4)
Injected packet length average = 1
Accepted packet length average = 1
Total in-flight flits = 19 (19 measured)
latency change    = 0.000823087
throughput change = 0.0113519
Draining all recorded packets ...
Draining remaining packets ...
Time taken is 3560 cycles
Class 0:
Packet latency average = 20.0614
	minimum = 7
	maximum = 58
Network latency average = 20.0614
	minimum = 7
	maximum = 58
Slowest packet = 22181
Flit latency average = 20.0614
	minimum = 7
	maximum = 58
Slowest flit = 22181
Fragmentation average = 0
	minimum = 0
	maximum = 0
Injected packet rate average = 0.053125
	minimum = 0.028 (at node 4)
	maximum = 0.07 (at node 7)
Accepted packet rate average = 0.050875
	minimum = 0.03 (at node 4)
	maximum = 0.062 (at node 7)
Injected flit rate average = 0.053125
	minimum = 0.028 (at node 4)
	maximum = 0.07 (at node 7)
Accepted flit rate average= 0.050875
	minimum = 0.03 (at node 4)
	maximum = 0.062 (at node 7)
Injected packet length average = 1
Accepted packet length average = 1
Total in-flight flits = 18 (0 measured)
latency change    = 1
throughput change = 1
Class 0:
Packet latency average = 19.97
	minimum = 7
	maximum = 58
Network latency average = 19.97
	minimum = 7
	maximum = 58
Slowest packet = 22181
Flit latency average = 19.97
	minimum = 7
	maximum = 58
Slowest flit = 22181
Fragmentation average = 0
	minimum = 0
	maximum = 0
Injected packet rate average = 0.0509375
	minimum = 0.042 (at node 4)
	maximum = 0.071 (at node 11)
Accepted packet rate average = 0.05
	minimum = 0.039 (at node 4)
	maximum = 0.059 (at node 7)
Injected flit rate average = 0.0509375
	minimum = 0.042 (at node 4)
	maximum = 0.071 (at node 11)
Accepted flit rate average= 0.05
	minimum = 0.039 (at node 4)
	maximum = 0.059 (at node 7)
Injected packet length average = 1
Accepted packet length average = 1
Total in-flight flits = 15 (0 measured)
latency change    = 0.00457812
throughput change = 0.0175
Class 0:
Packet latency average = 20.0749
	minimum = 7
	maximum = 49
Network latency average = 20.0749
	minimum = 7
	maximum = 49
Slowest packet = 22887
Flit latency average = 20.0749
	minimum = 7
	maximum = 49
Slowest flit = 22887
Fragmentation average = 0
	minimum = 0
	maximum = 0
Injected packet rate average = 0.04875
	minimum = 0.034 (at node 0)
	maximum = 0.07 (at node 14)
Accepted packet rate average = 0.048375
	minimum = 0.034 (at node 15)
	maximum = 0.068 (at node 3)
Injected flit rate average = 0.04875
	minimum = 0.034 (at node 0)
	maximum = 0.07 (at node 14)
Accepted flit rate average= 0.048375
	minimum = 0.034 (at node 15)
	maximum = 0.068 (at node 3)
Injected packet length average = 1
Accepted packet length average = 1
Total in-flight flits = 18 (0 measured)
latency change    = 0.00522718
throughput change = 0.0335917
Warmed up ...Time used is 1500 cycles
Class 0:
Packet latency average = 20.3915
	minimum = 7
	maximum = 49
Network latency average = 20.3915
	minimum = 7
	maximum = 49
Slowest packet = 23325
Flit latency average = 20.4798
	minimum = 7
	maximum = 49
Slowest flit = 23325
Fragmentation average = 0
	minimum = 0
	maximum = 0
Injected packet rate average = 0.04975
	minimum = 0.036 (at node 10)
	maximum = 0.066 (at node 0)
Accepted packet rate average = 0.0495
	minimum = 0.032 (at node 5)
	maximum = 0.064 (at node 6)
Injected flit rate average = 0.04975
	minimum = 0.036 (at node 10)
	maximum = 0.066 (at node 0)
Accepted flit rate average= 0.0495
	minimum = 0.032 (at node 5)
	maximum = 0.064 (at node 6)
Injected packet length average = 1
Accepted packet length average = 1
Total in-flight flits = 20 (20 measured)
latency change    = 0.015526
throughput change = 0.0227273
Class 0:
Packet latency average = 20.5216
	minimum = 7
	maximum = 49
Network latency average = 20.5216
	minimum = 7
	maximum = 49
Slowest packet = 23325
Flit latency average = 20.56
	minimum = 7
	maximum = 49
Slowest flit = 23325
Fragmentation average = 0
	minimum = 0
	maximum = 0
Injected packet rate average = 0.053125
	minimum = 0.036 (at node 10)
	maximum = 0.065 (at node 0)
Accepted packet rate average = 0.053125
	minimum = 0.043 (at node 11)
	maximum = 0.067 (at node 6)
Injected flit rate average = 0.053125
	minimum = 0.036 (at node 10)
	maximum = 0.065 (at node 0)
Accepted flit rate average= 0.053125
	minimum = 0.043 (at node 11)
	maximum = 0.067 (at node 6)
Injected packet length average = 1
Accepted packet length average = 1
Total in-flight flits = 18 (18 measured)
latency change    = 0.00633966
throughput change = 0.0682353
Class 0:
Packet latency average = 20.6353
	minimum = 7
	maximum = 58
Network latency average = 20.6353
	minimum = 7
	maximum = 58
Slowest packet = 23944
Flit latency average = 20.6591
	minimum = 7
	maximum = 58
Slowest flit = 23944
Fragmentation average = 0
	minimum = 0
	maximum = 0
Injected packet rate average = 0.0533333
	minimum = 0.042 (at node 10)
	maximum = 0.0633333 (at node 0)
Accepted packet rate average = 0.0534167
	minimum = 0.0473333 (at node 5)
	maximum = 0.0693333 (at node 6)
Injected flit rate average = 0.0533333
	minimum = 0.042 (at node 10)
	maximum = 0.0633333 (at node 0)
Accepted flit rate average= 0.0534167
	minimum = 0.0473333 (at node 5)
	maximum = 0.0693333 (at node 6)
Injected packet length average = 1
Accepted packet length average = 1
Total in-flight flits = 16 (16 measured)
latency change    = 0.00550757
throughput change = 0.00546022
Class 0:
Packet latency average = 20.6109
	minimum = 7
	maximum = 59
Network latency average = 20.6109
	minimum = 7
	maximum = 59
Slowest packet = 24571
Flit latency average = 20.6288
	minimum = 7
	maximum = 59
Slowest flit = 24571
Fragmentation average = 0
	minimum = 0
	maximum = 0
Injected packet rate average = 0.05375
	minimum = 0.0455 (at node 5)
	maximum = 0.062 (at node 0)
Accepted packet rate average = 0.0539688
	minimum = 0.0475 (at node 8)
	maximum = 0.067 (at node 6)
Injected flit rate average = 0.05375
	minimum = 0.0455 (at node 5)
	maximum = 0.062 (at node 0)
Accepted flit rate average= 0.0539688
	minimum = 0.0475 (at node 8)
	maximum = 0.067 (at node 6)
Injected packet length average = 1
Accepted packet length average = 1
Total in-flight flits = 11 (11 measured)
latency change    = 0.0011839
throughput change = 0.0102297
Class 0:
Packet latency average = 20.5213
	minimum = 7
	maximum = 59
Network latency average = 20.5213
	minimum = 7
	maximum = 59
Slowest packet = 24571
Flit latency average = 20.5367
	minimum = 7
	maximum = 59
Slowest flit = 24571
Fragmentation average = 0
	minimum = 0
	maximum = 0
Injected packet rate average = 0.05305
	minimum = 0.0448 (at node 5)
	maximum = 0.0604 (at node 14)
Accepted packet rate average = 0.0532
	minimum = 0.0456 (at node 13)
	maximum = 0.0644 (at node 6)
Injected flit rate average = 0.05305
	minimum = 0.0448 (at node 5)
	maximum = 0.0604 (at node 14)
Accepted flit rate average= 0.0532
	minimum = 0.0456 (at node 13)
	maximum = 0.0644 (at node 6)
Injected packet length average = 1
Accepted packet length average = 1
Total in-flight flits = 12 (12 measured)
latency change    = 0.00436407
throughput change = 0.0144502
Draining all recorded packets ...
Draining remaining packets ...
Time taken is 4064 cycles
Class 0:
Packet latency average = 20.6477
	minimum = 7
	maximum = 42
Network latency average = 20.6477
	minimum = 7
	maximum = 42
Slowest packet = 25266
Flit latency average = 20.6477
	minimum = 7
	maximum = 42
Slowest flit = 25266
Fragmentation average = 0
	minimum = 0
	maximum = 0
Injected packet rate average = 0.0475
	minimum = 0.034 (at node 8)
	maximum = 0.072 (at node 13)
Accepted packet rate average = 0.046125
	minimum = 0.038 (at node 5)
	maximum = 0.06 (at node 13)
Injected flit rate average = 0.0475
	minimum = 0.034 (at node 8)
	maximum = 0.072 (at node 13)
Accepted flit rate average= 0.046125
	minimum = 0.038 (at node 5)
	maximum = 0.06 (at node 13)
Injected packet length average = 1
Accepted packet length average = 1
Total in-flight flits = 11 (0 measured)
latency change    = 1
throughput change = 1
Class 0:
Packet latency average = 20.6821
	minimum = 7
	maximum = 59
Network latency average = 20.6821
	minimum = 7
	maximum = 59
Slowest packet = 25605
Flit latency average = 20.6821
	minimum = 7
	maximum = 59
Slowest flit = 25605
Fragmentation average = 0
	minimum = 0
	maximum = 0
Injected packet rate average = 0.049625
	minimum = 0.039 (at node 5)
	maximum = 0.069 (at node 13)
Accepted packet rate average = 0.04875
	minimum = 0.039 (at node 14)
	maximum = 0.054 (at node 8)
Injected flit rate average = 0.049625
	minimum = 0.039 (at node 5)
	maximum = 0.069 (at node 13)
Accepted flit rate average= 0.04875
	minimum = 0.039 (at node 14)
	maximum = 0.054 (at node 8)
Injected packet length average = 1
Accepted packet length average = 1
Total in-flight flits = 14 (0 measured)
latency change    = 0.00166109
throughput change = 0.0538462
Class 0:
Packet latency average = 20.4387
	minimum = 7
	maximum = 52
Network latency average = 20.4387
	minimum = 7
	maximum = 52
Slowest packet = 26232
Flit latency average = 20.4387
	minimum = 7
	maximum = 52
Slowest flit = 26232
Fragmentation average = 0
	minimum = 0
	maximum = 0
Injected packet rate average = 0.051125
	minimum = 0.032 (at node 10)
	maximum = 0.064 (at node 11)
Accepted packet rate average = 0.051
	minimum = 0.034 (at node 5)
	maximum = 0.07 (at node 13)
Injected flit rate average = 0.051125
	minimum = 0.032 (at node 10)
	maximum = 0.064 (at node 11)
Accepted flit rate average= 0.051
	minimum = 0.034 (at node 5)
	maximum = 0.07 (at node 13)
Injected packet length average = 1
Accepted packet length average = 1
Total in-flight flits = 15 (0 measured)
latency change    = 0.0119051
throughput change = 0.0441176
Warmed up ...Time used is 1500 cycles
Class 0:
Packet latency average = 19.3528
	minimum = 7
	maximum = 41
Network latency average = 19.3528
	minimum = 7
	maximum = 41
Slowest packet = 26501
Flit latency average = 19.449
	minimum = 7
	maximum = 41
Slowest flit = 26501
Fragmentation average = 0
	minimum = 0
	maximum = 0
Injected packet rate average = 0.048625
	minimum = 0.038 (at node 13)
	maximum = 0.062 (at node 6)
Accepted packet rate average = 0.049
	minimum = 0.026 (at node 0)
	maximum = 0.066 (at node 10)
Injected flit rate average = 0.048625
	minimum = 0.038 (at node 13)
	maximum = 0.062 (at node 6)
Accepted flit rate average= 0.049
	minimum = 0.026 (at node 0)
	maximum = 0.066 (at node 10)
Injected packet length average = 1
Accepted packet length average = 1
Total in-flight flits = 12 (12 measured)
latency change    = 0.0561129
throughput change = 0.0408163
Class 0:
Packet latency average = 20.4533
	minimum = 7
	maximum = 55
Network latency average = 20.4533
	minimum = 7
	maximum = 55
Slowest packet = 27051
Flit latency average = 20.4792
	minimum = 7
	maximum = 55
Slowest flit = 27051
Fragmentation average = 0
	minimum = 0
	maximum = 0
Injected packet rate average = 0.05075
	minimum = 0.042 (at node 2)
	maximum = 0.061 (at node 8)
Accepted packet rate average = 0.051125
	minimum = 0.035 (at node 2)
	maximum = 0.063 (at node 5)
Injected flit rate average = 0.05075
	minimum = 0.042 (at node 2)
	maximum = 0.061 (at node 8)
Accepted flit rate average= 0.051125
	minimum = 0.035 (at node 2)
	maximum = 0.063 (at node 5)
Injected packet length average = 1
Accepted packet length average = 1
Total in-flight flits = 9 (9 measured)
latency change    = 0.0538062
throughput change = 0.0415648
Class 0:
Packet latency average = 20.3829
	minimum = 7
	maximum = 70
Network latency average = 20.3829
	minimum = 7
	maximum = 70
Slowest packet = 27311
Flit latency average = 20.4013
	minimum = 7
	maximum = 70
Slowest flit = 27311
Fragmentation average = 0
	minimum = 0
	maximum = 0
Injected packet rate average = 0.0502917
	minimum = 0.0406667 (at node 4)
	maximum = 0.06 (at node 15)
Accepted packet rate average = 0.0504583
	minimum = 0.0373333 (at node 2)
	maximum = 0.064 (at node 5)
Injected flit rate average = 0.0502917
	minimum = 0.0406667 (at node 4)
	maximum = 0.06 (at node 15)
Accepted flit rate average= 0.0504583
	minimum = 0.0373333 (at node 2)
	maximum = 0.064 (at node 5)
Injected packet length average = 1
Accepted packet length average = 1
Total in-flight flits = 11 (11 measured)
latency change    = 0.00345176
throughput change = 0.0132122
Class 0:
Packet latency average = 20.2655
	minimum = 7
	maximum = 70
Network latency average = 20.2655
	minimum = 7
	maximum = 70
Slowest packet = 27311
Flit latency average = 20.2803
	minimum = 7
	maximum = 70
Slowest flit = 27311
Fragmentation average = 0
	minimum = 0
	maximum = 0
Injected packet rate average = 0.051
	minimum = 0.0445 (at node 4)
	maximum = 0.06 (at node 8)
Accepted packet rate average = 0.0507187
	minimum = 0.0425 (at node 2)
	maximum = 0.0625 (at node 5)
Injected flit rate average = 0.051
	minimum = 0.0445 (at node 4)
	maximum = 0.06 (at node 8)
Accepted flit rate average= 0.0507187
	minimum = 0.0425 (at node 2)
	maximum = 0.0625 (at node 5)
Injected packet length average = 1
Accepted packet length average = 1
Total in-flight flits = 24 (24 measured)
latency change    = 0.00579288
throughput change = 0.00513452
Class 0:
Packet latency average = 20.5022
	minimum = 7
	maximum = 70
Network latency average = 20.5022
	minimum = 7
	maximum = 70
Slowest packet = 27311
Flit latency average = 20.5124
	minimum = 7
	maximum = 70
Slowest flit = 27311
Fragmentation average = 0
	minimum = 0
	maximum = 0
Injected packet rate average = 0.050775
	minimum = 0.0424 (at node 9)
	maximum = 0.0628 (at node 8)
Accepted packet rate average = 0.0506
	minimum = 0.0436 (at node 2)
	maximum = 0.06 (at node 5)
Injected flit rate average = 0.050775
	minimum = 0.0424 (at node 9)
	maximum = 0.0628 (at node 8)
Accepted flit rate average= 0.0506
	minimum = 0.0436 (at node 2)
	maximum = 0.06 (at node 5)
Injected packet length average = 1
Accepted packet length average = 1
Total in-flight flits = 22 (22 measured)
latency change    = 0.0115447
throughput change = 0.00234684
Draining all recorded packets ...
Draining remaining packets ...
Time taken is 4053 cycles
Class 0:
Packet latency average = 20.2891
	minimum = 7
	maximum = 54
Network latency average = 20.2891
	minimum = 7
	maximum = 54
Slowest packet = 28722
Flit latency average = 20.2891
	minimum = 7
	maximum = 54
Slowest flit = 28722
Fragmentation average = 0
	minimum = 0
	maximum = 0
Injected packet rate average = 0.0495
	minimum = 0.028 (at node 11)
	maximum = 0.068 (at node 10)
Accepted packet rate average = 0.047125
	minimum = 0.032 (at node 14)
	maximum = 0.074 (at node 9)
Injected flit rate average = 0.0495
	minimum = 0.028 (at node 11)
	maximum = 0.068 (at node 10)
Accepted flit rate average= 0.047125
	minimum = 0.032 (at node 14)
	maximum = 0.074 (at node 9)
Injected packet length average = 1
Accepted packet length average = 1
Total in-flight flits = 19 (0 measured)
latency change    = 1
throughput change = 1
Class 0:
Packet latency average = 20.4589
	minimum = 7
	maximum = 54
Network latency average = 20.4576
	minimum = 7
	maximum = 54
Slowest packet = 28722
Flit latency average = 20.4576
	minimum = 7
	maximum = 54
Slowest flit = 28722
Fragmentation average = 0
	minimum = 0
	maximum = 0
Injected packet rate average = 0.0495
	minimum = 0.031 (at node 11)
	maximum = 0.057 (at node 10)
Accepted packet rate average = 0.0479375
	minimum = 0.035 (at node 14)
	maximum = 0.064 (at node 3)
Injected flit rate average = 0.0495
	minimum = 0.031 (at node 11)
	maximum = 0.057 (at node 10)
Accepted flit rate average= 0.0479375
	minimum = 0.035 (at node 14)
	maximum = 0.064 (at node 3)
Injected packet length average = 1
Accepted packet length average = 1
Total in-flight flits = 25 (0 measured)
latency change    = 0.00829986
throughput change = 0.0169492
Class 0:
Packet latency average = 20.0417
	minimum = 7
	maximum = 60
Network latency average = 20.0339
	minimum = 7
	maximum = 60
Slowest packet = 29542
Flit latency average = 20.0339
	minimum = 7
	maximum = 60
Slowest flit = 29542
Fragmentation average = 0
	minimum = 0
	maximum = 0
Injected packet rate average = 0.046125
	minimum = 0.034 (at node 4)
	maximum = 0.066 (at node 9)
Accepted packet rate average = 0.048
	minimum = 0.034 (at node 2)
	maximum = 0.064 (at node 14)
Injected flit rate average = 0.046125
	minimum = 0.034 (at node 4)
	maximum = 0.066 (at node 9)
Accepted flit rate average= 0.048
	minimum = 0.034 (at node 2)
	maximum = 0.064 (at node 14)
Injected packet length average = 1
Accepted packet length average = 1
Total in-flight flits = 10 (0 measured)
latency change    = 0.0208198
throughput change = 0.00130208
Warmed up ...Time used is 1500 cycles
Class 0:
Packet latency average = 20.4496
	minimum = 7
	maximum = 47
Network latency average = 20.4496
	minimum = 7
	maximum = 47
Slowest packet = 29834
Flit latency average = 20.4635
	minimum = 7
	maximum = 47
Slowest flit = 29834
Fragmentation average = 0
	minimum = 0
	maximum = 0
Injected packet rate average = 0.05025
	minimum = 0.032 (at node 3)
	maximum = 0.072 (at node 14)
Accepted packet rate average = 0.049625
	minimum = 0.036 (at node 14)
	maximum = 0.062 (at node 3)
Injected flit rate average = 0.05025
	minimum = 0.032 (at node 3)
	maximum = 0.072 (at node 14)
Accepted flit rate average= 0.049625
	minimum = 0.036 (at node 14)
	maximum = 0.062 (at node 3)
Injected packet length average = 1
Accepted packet length average = 1
Total in-flight flits = 15 (15 measured)
latency change    = 0.0199488
throughput change = 0.0327456
Class 0:
Packet latency average = 20.3542
	minimum = 7
	maximum = 47
Network latency average = 20.3542
	minimum = 7
	maximum = 47
Slowest packet = 29834
Flit latency average = 20.3625
	minimum = 7
	maximum = 47
Slowest flit = 29834
Fragmentation average = 0
	minimum = 0
	maximum = 0
Injected packet rate average = 0.048625
	minimum = 0.043 (at node 10)
	maximum = 0.059 (at node 14)
Accepted packet rate average = 0.048625
	minimum = 0.038 (at node 14)
	maximum = 0.055 (at node 0)
Injected flit rate average = 0.048625
	minimum = 0.043 (at node 10)
	maximum = 0.059 (at node 14)
Accepted flit rate average= 0.048625
	minimum = 0.038 (at node 14)
	maximum = 0.055 (at node 0)
Injected packet length average = 1
Accepted packet length average = 1
Total in-flight flits = 10 (10 measured)
latency change    = 0.00468925
throughput change = 0.0205656
Class 0:
Packet latency average = 20.5281
	minimum = 7
	maximum = 50
Network latency average = 20.5281
	minimum = 7
	maximum = 50
Slowest packet = 30610
Flit latency average = 20.5321
	minimum = 7
	maximum = 50
Slowest flit = 30610
Fragmentation average = 0
	minimum = 0
	maximum = 0
Injected packet rate average = 0.050125
	minimum = 0.0446667 (at node 9)
	maximum = 0.0586667 (at node 11)
Accepted packet rate average = 0.0500417
	minimum = 0.0426667 (at node 14)
	maximum = 0.0613333 (at node 15)
Injected flit rate average = 0.050125
	minimum = 0.0446667 (at node 9)
	maximum = 0.0586667 (at node 11)
Accepted flit rate average= 0.0500417
	minimum = 0.0426667 (at node 14)
	maximum = 0.0613333 (at node 15)
Injected packet length average = 1
Accepted packet length average = 1
Total in-flight flits = 12 (12 measured)
latency change    = 0.00847427
throughput change = 0.0283097
Draining all recorded packets ...
Draining remaining packets ...
Time taken is 3061 cycles
Class 0:
Packet latency average = 20.2205
	minimum = 7
	maximum = 49
Network latency average = 20.2205
	minimum = 7
	maximum = 49
Slowest packet = 31037
Flit latency average = 20.2205
	minimum = 7
	maximum = 49
Slowest flit = 31037
Fragmentation average = 0
	minimum = 0
	maximum = 0
Injected packet rate average = 0.0495
	minimum = 0.03 (at node 2)
	maximum = 0.072 (at node 13)
Accepted packet rate average = 0.047625
	minimum = 0.028 (at node 9)
	maximum = 0.066 (at node 11)
Injected flit rate average = 0.0495
	minimum = 0.03 (at node 2)
	maximum = 0.072 (at node 13)
Accepted flit rate average= 0.047625
	minimum = 0.028 (at node 9)
	maximum = 0.066 (at node 11)
Injected packet length average = 1
Accepted packet length average = 1
Total in-flight flits = 15 (0 measured)
latency change    = 1
throughput change = 1
Class 0:
Packet latency average = 20.2029
	minimum = 7
	maximum = 49
Network latency average = 20.2029
	minimum = 7
	maximum = 49
Slowest packet = 31037
Flit latency average = 20.2029
	minimum = 7
	maximum = 49
Slowest flit = 31037
Fragmentation average = 0
	minimum = 0
	maximum = 0
Injected packet rate average = 0.0481875
	minimum = 0.031 (at node 2)
	maximum = 0.06 (at node 11)
Accepted packet rate average = 0.0474375
	minimum = 0.034 (at node 10)
	maximum = 0.069 (at node 11)
Injected flit rate average = 0.0481875
	minimum = 0.031 (at node 2)
	maximum = 0.06 (at node 11)
Accepted flit rate average= 0.0474375
	minimum = 0.034 (at node 10)
	maximum = 0.069 (at node 11)
Injected packet length average = 1
Accepted packet length average = 1
Total in-flight flits = 12 (0 measured)
latency change    = 0.00086987
throughput change = 0.00395257
Class 0:
Packet latency average = 20.7175
	minimum = 7
	maximum = 43
Network latency average = 20.7175
	minimum = 7
	maximum = 43
Slowest packet = 31933
Flit latency average = 20.7175
	minimum = 7
	maximum = 43
Slowest flit = 31933
Fragmentation average = 0
	minimum = 0
	maximum = 0
Injected packet rate average = 0.045
	minimum = 0.034 (at node 10)
	maximum = 0.058 (at node 4)
Accepted packet rate average = 0.04425
	minimum = 0.034 (at node 8)
	maximum = 0.062 (at node 12)
Injected flit rate average = 0.045
	minimum = 0.034 (at node 10)
	maximum = 0.058 (at node 4)
Accepted flit rate average= 0.04425
	minimum = 0.034 (at node 8)
	maximum = 0.062 (at node 12)
Injected packet length average = 1
Accepted packet length average = 1
Total in-flight flits = 18 (0 measured)
latency change    = 0.0248396
throughput change = 0.0720339
Warmed up ...Time used is 1500 cycles
Class 0:
Packet latency average = 21.0366
	minimum = 7
	maximum = 50
Network latency average = 21.0366
	minimum = 7
	maximum = 50
Slowest packet = 32294
Flit latency average = 21.0349
	minimum = 7
	maximum = 50
Slowest flit = 32294
Fragmentation average = 0
	minimum = 0
	maximum = 0
Injected packet rate average = 0.050125
	minimum = 0.03 (at node 12)
	maximum = 0.062 (at node 14)
Accepted packet rate average = 0.050125
	minimum = 0.034 (at node 4)
	maximum = 0.068 (at node 12)
Injected flit rate average = 0.050125
	minimum = 0.03 (at node 12)
	maximum = 0.062 (at node 14)
Accepted flit rate average= 0.050125
	minimum = 0.034 (at node 4)
	maximum = 0.068 (at node 12)
Injected packet length average = 1
Accepted packet length average = 1
Total in-flight flits = 18 (18 measured)
latency change    = 0.015166
throughput change = 0.117207
Class 0:
Packet latency average = 20.7205
	minimum = 7
	maximum = 50
Network latency average = 20.7205
	minimum = 7
	maximum = 50
Slowest packet = 32294
Flit latency average = 20.7267
	minimum = 7
	maximum = 50
Slowest flit = 32294
Fragmentation average = 0
	minimum = 0
	maximum = 0
Injected packet rate average = 0.0498125
	minimum = 0.035 (at node 6)
	maximum = 0.061 (at node 1)
Accepted packet rate average = 0.0503125
	minimum = 0.037 (at node 11)
	maximum = 0.068 (at node 12)
Injected flit rate average = 0.0498125
	minimum = 0.035 (at node 6)
	maximum = 0.061 (at node 1)
Accepted flit rate average= 0.0503125
	minimum = 0.037 (at node 11)
	maximum = 0.068 (at node 12)
Injected packet length average = 1
Accepted packet length average = 1
Total in-flight flits = 10 (10 measured)
latency change    = 0.0152553
throughput change = 0.00372671
Class 0:
Packet latency average = 20.5835
	minimum = 7
	maximum = 50
Network latency average = 20.5835
	minimum = 7
	maximum = 50
Slowest packet = 32294
Flit latency average = 20.5898
	minimum = 7
	maximum = 50
Slowest flit = 32294
Fragmentation average = 0
	minimum = 0
	maximum = 0
Injected packet rate average = 0.0502083
	minimum = 0.0366667 (at node 6)
	maximum = 0.0573333 (at node 2)
Accepted packet rate average = 0.049875
	minimum = 0.0353333 (at node 4)
	maximum = 0.0633333 (at node 1)
Injected flit rate average = 0.0502083
	minimum = 0.0366667 (at node 6)
	maximum = 0.0573333 (at node 2)
Accepted flit rate average= 0.049875
	minimum = 0.0353333 (at node 4)
	maximum = 0.0633333 (at node 1)
Injected packet length average = 1
Accepted packet length average = 1
Total in-flight flits = 26 (26 measured)
latency change    = 0.00665153
throughput change = 0.00877193
Class 0:
Packet latency average = 20.5287
	minimum = 7
	maximum = 50
Network latency average = 20.5287
	minimum = 7
	maximum = 50
Slowest packet = 32294
Flit latency average = 20.534
	minimum = 7
	maximum = 50
Slowest flit = 32294
Fragmentation average = 0
	minimum = 0
	maximum = 0
Injected packet rate average = 0.0500937
	minimum = 0.0375 (at node 6)
	maximum = 0.057 (at node 2)
Accepted packet rate average = 0.0501562
	minimum = 0.0385 (at node 4)
	maximum = 0.0625 (at node 12)
Injected flit rate average = 0.0500937
	minimum = 0.0375 (at node 6)
	maximum = 0.057 (at node 2)
Accepted flit rate average= 0.0501562
	minimum = 0.0385 (at node 4)
	maximum = 0.0625 (at node 12)
Injected packet length average = 1
Accepted packet length average = 1
Total in-flight flits = 16 (16 measured)
latency change    = 0.00267309
throughput change = 0.00560748
Draining all recorded packets ...
Draining remaining packets ...
Time taken is 3563 cycles
Class 0:
Packet latency average = 20.7781
	minimum = 7
	maximum = 50
Network latency average = 20.7781
	minimum = 7
	maximum = 50
Slowest packet = 33680
Flit latency average = 20.7781
	minimum = 7
	maximum = 50
Slowest flit = 33680
Fragmentation average = 0
	minimum = 0
	maximum = 0
Injected packet rate average = 0.048875
	minimum = 0.026 (at node 1)
	maximum = 0.072 (at node 15)
Accepted packet rate average = 0.04675
	minimum = 0.03 (at node 4)
	maximum = 0.066 (at node 15)
Injected flit rate average = 0.048875
	minimum = 0.026 (at node 1)
	maximum = 0.072 (at node 15)
Accepted flit rate average= 0.04675
	minimum = 0.03 (at node 4)
	maximum = 0.066 (at node 15)
Injected packet length average = 1
Accepted packet length average = 1
Total in-flight flits = 17 (0 measured)
latency change    = 1
throughput change = 1
Class 0:
Packet latency average = 20.9615
	minimum = 7
	maximum = 51
Network latency average = 20.9615
	minimum = 7
	maximum = 51
Slowest packet = 34078
Flit latency average = 20.9615
	minimum = 7
	maximum = 51
Slowest flit = 34078
Fragmentation average = 0
	minimum = 0
	maximum = 0
Injected packet rate average = 0.048
	minimum = 0.035 (at node 1)
	maximum = 0.057 (at node 4)
Accepted packet rate average = 0.047125
	minimum = 0.03 (at node 2)
	maximum = 0.061 (at node 15)
Injected flit rate average = 0.048
	minimum = 0.035 (at node 1)
	maximum = 0.057 (at node 4)
Accepted flit rate average= 0.047125
	minimum = 0.03 (at node 2)
	maximum = 0.061 (at node 15)
Injected packet length average = 1
Accepted packet length average = 1
Total in-flight flits = 14 (0 measured)
latency change    = 0.00875239
throughput change = 0.00795756
Class 0:
Packet latency average = 20.6633
	minimum = 7
	maximum = 61
Network latency average = 20.6633
	minimum = 7
	maximum = 61
Slowest packet = 34523
Flit latency average = 20.6633
	minimum = 7
	maximum = 61
Slowest flit = 34523
Fragmentation average = 0
	minimum = 0
	maximum = 0
Injected packet rate average = 0.050375
	minimum = 0.04 (at node 0)
	maximum = 0.06 (at node 10)
Accepted packet rate average = 0.050125
	minimum = 0.024 (at node 8)
	maximum = 0.072 (at node 4)
Injected flit rate average = 0.050375
	minimum = 0.04 (at node 0)
	maximum = 0.06 (at node 10)
Accepted flit rate average= 0.050125
	minimum = 0.024 (at node 8)
	maximum = 0.072 (at node 4)
Injected packet length average = 1
Accepted packet length average = 1
Total in-flight flits = 16 (0 measured)
latency change    = 0.0144312
throughput change = 0.0598504
Warmed up ...Time used is 1500 cycles
Class 0:
Packet latency average = 20.4346
	minimum = 7
	maximum = 46
Network latency average = 20.4346
	minimum = 7
	maximum = 46
Slowest packet = 35123
Flit latency average = 20.6892
	minimum = 7
	maximum = 46
Slowest flit = 35123
Fragmentation average = 0
	minimum = 0
	maximum = 0
Injected packet rate average = 0.05575
	minimum = 0.04 (at node 14)
	maximum = 0.07 (at node 7)
Accepted packet rate average = 0.0555
	minimum = 0.036 (at node 8)
	maximum = 0.076 (at node 4)
Injected flit rate average = 0.05575
	minimum = 0.04 (at node 14)
	maximum = 0.07 (at node 7)
Accepted flit rate average= 0.0555
	minimum = 0.036 (at node 8)
	maximum = 0.076 (at node 4)
Injected packet length average = 1
Accepted packet length average = 1
Total in-flight flits = 18 (18 measured)
latency change    = 0.0111949
throughput change = 0.0968468
Class 0:
Packet latency average = 20.2892
	minimum = 7
	maximum = 46
Network latency average = 20.2892
	minimum = 7
	maximum = 46
Slowest packet = 35123
Flit latency average = 20.4291
	minimum = 7
	maximum = 46
Slowest flit = 35123
Fragmentation average = 0
	minimum = 0
	maximum = 0
Injected packet rate average = 0.0515625
	minimum = 0.04 (at node 13)
	maximum = 0.063 (at node 7)
Accepted packet rate average = 0.0515625
	minimum = 0.042 (at node 8)
	maximum = 0.064 (at node 4)
Injected flit rate average = 0.0515625
	minimum = 0.04 (at node 13)
	maximum = 0.063 (at node 7)
Accepted flit rate average= 0.0515625
	minimum = 0.042 (at node 8)
	maximum = 0.064 (at node 4)
Injected packet length average = 1
Accepted packet length average = 1
Total in-flight flits = 16 (16 measured)
latency change    = 0.00716308
throughput change = 0.0763636
Class 0:
Packet latency average = 20.2039
	minimum = 7
	maximum = 46
Network latency average = 20.2039
	minimum = 7
	maximum = 46
Slowest packet = 35123
Flit latency average = 20.2987
	minimum = 7
	maximum = 46
Slowest flit = 35123
Fragmentation average = 0
	minimum = 0
	maximum = 0
Injected packet rate average = 0.05125
	minimum = 0.042 (at node 13)
	maximum = 0.0606667 (at node 7)
Accepted packet rate average = 0.0513333
	minimum = 0.0446667 (at node 8)
	maximum = 0.0606667 (at node 1)
Injected flit rate average = 0.05125
	minimum = 0.042 (at node 13)
	maximum = 0.0606667 (at node 7)
Accepted flit rate average= 0.0513333
	minimum = 0.0446667 (at node 8)
	maximum = 0.0606667 (at node 1)
Injected packet length average = 1
Accepted packet length average = 1
Total in-flight flits = 14 (14 measured)
latency change    = 0.00422188
throughput change = 0.00446429
Class 0:
Packet latency average = 20.2166
	minimum = 7
	maximum = 46
Network latency average = 20.2166
	minimum = 7
	maximum = 46
Slowest packet = 35123
Flit latency average = 20.288
	minimum = 7
	maximum = 46
Slowest flit = 35123
Fragmentation average = 0
	minimum = 0
	maximum = 0
Injected packet rate average = 0.051125
	minimum = 0.042 (at node 13)
	maximum = 0.056 (at node 0)
Accepted packet rate average = 0.051
	minimum = 0.0445 (at node 8)
	maximum = 0.062 (at node 1)
Injected flit rate average = 0.051125
	minimum = 0.042 (at node 13)
	maximum = 0.056 (at node 0)
Accepted flit rate average= 0.051
	minimum = 0.0445 (at node 8)
	maximum = 0.062 (at node 1)
Injected packet length average = 1
Accepted packet length average = 1
Total in-flight flits = 20 (20 measured)
latency change    = 0.00062507
throughput change = 0.00653595
Class 0:
Packet latency average = 20.232
	minimum = 7
	maximum = 46
Network latency average = 20.232
	minimum = 7
	maximum = 46
Slowest packet = 35123
Flit latency average = 20.2889
	minimum = 7
	maximum = 46
Slowest flit = 35123
Fragmentation average = 0
	minimum = 0
	maximum = 0
Injected packet rate average = 0.051075
	minimum = 0.0452 (at node 5)
	maximum = 0.056 (at node 0)
Accepted packet rate average = 0.05105
	minimum = 0.044 (at node 8)
	maximum = 0.0576 (at node 0)
Injected flit rate average = 0.051075
	minimum = 0.0452 (at node 5)
	maximum = 0.056 (at node 0)
Accepted flit rate average= 0.05105
	minimum = 0.044 (at node 8)
	maximum = 0.0576 (at node 0)
Injected packet length average = 1
Accepted packet length average = 1
Total in-flight flits = 17 (17 measured)
latency change    = 0.000761173
throughput change = 0.000979432
Draining all recorded packets ...
Draining remaining packets ...
Time taken is 4076 cycles
Class 0:
Packet latency average = 20.5197
	minimum = 7
	maximum = 55
Network latency average = 20.5197
	minimum = 7
	maximum = 55
Slowest packet = 37153
Flit latency average = 20.5197
	minimum = 7
	maximum = 55
Slowest flit = 37153
Fragmentation average = 0
	minimum = 0
	maximum = 0
Injected packet rate average = 0.0465
	minimum = 0.034 (at node 1)
	maximum = 0.06 (at node 3)
Accepted packet rate average = 0.0445
	minimum = 0.028 (at node 4)
	maximum = 0.06 (at node 0)
Injected flit rate average = 0.0465
	minimum = 0.034 (at node 1)
	maximum = 0.06 (at node 3)
Accepted flit rate average= 0.0445
	minimum = 0.028 (at node 4)
	maximum = 0.06 (at node 0)
Injected packet length average = 1
Accepted packet length average = 1
Total in-flight flits = 16 (0 measured)
latency change    = 1
throughput change = 1
Class 0:
Packet latency average = 20.2792
	minimum = 7
	maximum = 55
Network latency average = 20.2792
	minimum = 7
	maximum = 55
Slowest packet = 37153
[...]
	minimum = 0
	maximum = 0
Injected packet rate average = 0.049125
	minimum = 0.04 (at node 2)
	maximum = 0.061 (at node 4)
Accepted packet rate average = 0.04925
	minimum = 0.032 (at node 15)
	maximum = 0.065 (at node 14)
Injected flit rate average = 0.049125
	minimum = 0.04 (at node 2)
	maximum = 0.061 (at node 4)
Accepted flit rate average= 0.04925
	minimum = 0.032 (at node 15)
	maximum = 0.065 (at node 14)
Injected packet length average = 1
Accepted packet length average = 1
Total in-flight flits = 13 (13 measured)
latency change    = 0.0051124
throughput change = 0.0152284
Class 0:
Packet latency average = 20.3411
	minimum = 7
	maximum = 73
Network latency average = 20.3411
	minimum = 7
	maximum = 73
Slowest packet = 124537
Flit latency average = 20.3803
	minimum = 7
	maximum = 73
Slowest flit = 124537
Fragmentation average = 0
	minimum = 0
	maximum = 0
Injected packet rate average = 0.051125
	minimum = 0.0426667 (at node 2)
	maximum = 0.0633333 (at node 3)
Accepted packet rate average = 0.0508333
	minimum = 0.04 (at node 15)
	maximum = 0.0633333 (at node 14)
Injected flit rate average = 0.051125
	minimum = 0.0426667 (at node 2)
	maximum = 0.0633333 (at node 3)
Accepted flit rate average= 0.0508333
	minimum = 0.04 (at node 15)
	maximum = 0.0633333 (at node 14)
Injected packet length average = 1
Accepted packet length average = 1
Total in-flight flits = 22 (22 measured)
latency change    = 0.000340001
throughput change = 0.0311475
Draining all recorded packets ...
Draining remaining packets ...
Time taken is 3059 cycles
Class 0:
Packet latency average = 20.9038
	minimum = 7
	maximum = 46
Network latency average = 20.9038
	minimum = 7
	maximum = 46
Slowest packet = 124705
Flit latency average = 20.9038
	minimum = 7
	maximum = 46
Slowest flit = 124705
Fragmentation average = 0
	minimum = 0
	maximum = 0
Injected packet rate average = 0.044625
	minimum = 0.026 (at node 11)
	maximum = 0.068 (at node 6)
Accepted packet rate average = 0.042875
	minimum = 0.018 (at node 5)
	maximum = 0.058 (at node 4)
Injected flit rate average = 0.044625
	minimum = 0.026 (at node 11)
	maximum = 0.068 (at node 6)
Accepted flit rate average= 0.042875
	minimum = 0.018 (at node 5)
	maximum = 0.058 (at node 4)
Injected packet length average = 1
Accepted packet length average = 1
Total in-flight flits = 14 (0 measured)
latency change    = 1
throughput change = 1
Class 0:
Packet latency average = 20.4384
	minimum = 7
	maximum = 53
Network latency average = 20.4384
	minimum = 7
	maximum = 53
Slowest packet = 124999
Flit latency average = 20.4384
	minimum = 7
	maximum = 53
Slowest flit = 124999
Fragmentation average = 0
	minimum = 0
	maximum = 0
Injected packet rate average = 0.046625
	minimum = 0.036 (at node 0)
	maximum = 0.065 (at node 6)
Accepted packet rate average = 0.045625
	minimum = 0.034 (at node 15)
	maximum = 0.055 (at node 13)
Injected flit rate average = 0.046625
	minimum = 0.036 (at node 0)
	maximum = 0.065 (at node 6)
Accepted flit rate average= 0.045625
	minimum = 0.034 (at node 15)
	maximum = 0.055 (at node 13)
Injected packet length average = 1
Accepted packet length average = 1
Total in-flight flits = 16 (0 measured)
latency change    = 0.0227726
throughput change = 0.060274
Class 0:
Packet latency average = 20.2157
	minimum = 7
	maximum = 55
Network latency average = 20.2157
	minimum = 7
	maximum = 55
Slowest packet = 125689
Flit latency average = 20.2157
	minimum = 7
	maximum = 55
Slowest flit = 125689
Fragmentation average = 0
	minimum = 0
	maximum = 0
Injected packet rate average = 0.04975
	minimum = 0.032 (at node 4)
	maximum = 0.066 (at node 11)
Accepted packet rate average = 0.04925
	minimum = 0.038 (at node 10)
	maximum = 0.062 (at node 1)
Injected flit rate average = 0.04975
	minimum = 0.032 (at node 4)
	maximum = 0.066 (at node 11)
Accepted flit rate average= 0.04925
	minimum = 0.038 (at node 10)
	maximum = 0.062 (at node 1)
Injected packet length average = 1
Accepted packet length average = 1
Total in-flight flits = 20 (0 measured)
latency change    = 0.0110122
throughput change = 0.0736041
Warmed up ...Time used is 1500 cycles
Class 0:
Packet latency average = 20.4589
	minimum = 7
	maximum = 53
Network latency average = 20.4589
	minimum = 7
	maximum = 53
Slowest packet = 126010
Flit latency average = 20.5368
	minimum = 7
	maximum = 53
Slowest flit = 126010
Fragmentation average = 0
	minimum = 0
	maximum = 0
Injected packet rate average = 0.052375
	minimum = 0.034 (at node 2)
	maximum = 0.076 (at node 5)
Accepted packet rate average = 0.052625
	minimum = 0.044 (at node 0)
	maximum = 0.064 (at node 4)
Injected flit rate average = 0.052375
	minimum = 0.034 (at node 2)
	maximum = 0.076 (at node 5)
Accepted flit rate average= 0.052625
	minimum = 0.044 (at node 0)
	maximum = 0.064 (at node 4)
Injected packet length average = 1
Accepted packet length average = 1
Total in-flight flits = 18 (18 measured)
latency change    = 0.0118832
throughput change = 0.064133
Class 0:
Packet latency average = 20.9136
	minimum = 7
	maximum = 55
Network latency average = 20.9136
	minimum = 7
	maximum = 55
Slowest packet = 126410
Flit latency average = 20.9426
	minimum = 7
	maximum = 55
Slowest flit = 126410
Fragmentation average = 0
	minimum = 0
	maximum = 0
Injected packet rate average = 0.0508125
	minimum = 0.039 (at node 15)
	maximum = 0.063 (at node 5)
Accepted packet rate average = 0.0511875
	minimum = 0.043 (at node 0)
	maximum = 0.065 (at node 7)
Injected flit rate average = 0.0508125
	minimum = 0.039 (at node 15)
	maximum = 0.063 (at node 5)
Accepted flit rate average= 0.0511875
	minimum = 0.043 (at node 0)
	maximum = 0.065 (at node 7)
Injected packet length average = 1
Accepted packet length average = 1
Total in-flight flits = 14 (14 measured)
latency change    = 0.0217461
throughput change = 0.028083
Class 0:
Packet latency average = 20.9932
	minimum = 7
	maximum = 60
Network latency average = 20.9932
	minimum = 7
	maximum = 60
Slowest packet = 126933
Flit latency average = 21.0117
	minimum = 7
	maximum = 60
Slowest flit = 126933
Fragmentation average = 0
	minimum = 0
	maximum = 0
Injected packet rate average = 0.049375
	minimum = 0.04 (at node 15)
	maximum = 0.0566667 (at node 5)
Accepted packet rate average = 0.0497083
	minimum = 0.0433333 (at node 6)
	maximum = 0.0593333 (at node 7)
Injected flit rate average = 0.049375
	minimum = 0.04 (at node 15)
	maximum = 0.0566667 (at node 5)
Accepted flit rate average= 0.0497083
	minimum = 0.0433333 (at node 6)
	maximum = 0.0593333 (at node 7)
Injected packet length average = 1
Accepted packet length average = 1
Total in-flight flits = 12 (12 measured)
latency change    = 0.00378875
throughput change = 0.0297569
Class 0:
Packet latency average = 21.0282
	minimum = 7
	maximum = 60
Network latency average = 21.0282
	minimum = 7
	maximum = 60
Slowest packet = 126933
Flit latency average = 21.0414
	minimum = 7
	maximum = 60
Slowest flit = 126933
Fragmentation average = 0
	minimum = 0
	maximum = 0
Injected packet rate average = 0.0505312
	minimum = 0.0435 (at node 15)
	maximum = 0.0555 (at node 12)
Accepted packet rate average = 0.0505312
	minimum = 0.0415 (at node 2)
	maximum = 0.0575 (at node 13)
Injected flit rate average = 0.0505312
	minimum = 0.0435 (at node 15)
	maximum = 0.0555 (at node 12)
Accepted flit rate average= 0.0505312
	minimum = 0.0415 (at node 2)
	maximum = 0.0575 (at node 13)
Injected packet length average = 1
Accepted packet length average = 1
Total in-flight flits = 20 (20 measured)
latency change    = 0.00166434
throughput change = 0.0162853
Draining all recorded packets ...
Draining remaining packets ...
Time taken is 3563 cycles
Class 0:
Packet latency average = 20.6851
	minimum = 7
	maximum = 50
Network latency average = 20.6851
	minimum = 7
	maximum = 50
Slowest packet = 127742
Flit latency average = 20.6851
	minimum = 7
	maximum = 50
Slowest flit = 127742
Fragmentation average = 0
	minimum = 0
	maximum = 0
Injected packet rate average = 0.04825
	minimum = 0.034 (at node 5)
	maximum = 0.066 (at node 1)
Accepted packet rate average = 0.04525
	minimum = 0.026 (at node 6)
	maximum = 0.064 (at node 5)
Injected flit rate average = 0.04825
	minimum = 0.034 (at node 5)
	maximum = 0.066 (at node 1)
Accepted flit rate average= 0.04525
	minimum = 0.026 (at node 6)
	maximum = 0.064 (at node 5)
Injected packet length average = 1
Accepted packet length average = 1
Total in-flight flits = 24 (0 measured)
latency change    = 1
throughput change = 1
Class 0:
Packet latency average = 20.4831
	minimum = 7
	maximum = 55
Network latency average = 20.4831
	minimum = 7
	maximum = 55
Slowest packet = 127790
Flit latency average = 20.4831
	minimum = 7
	maximum = 55
Slowest flit = 127790
Fragmentation average = 0
	minimum = 0
	maximum = 0
Injected packet rate average = 0.0475
	minimum = 0.034 (at node 5)
	maximum = 0.063 (at node 10)
Accepted packet rate average = 0.0463125
	minimum = 0.039 (at node 9)
	maximum = 0.06 (at node 0)
Injected flit rate average = 0.0475
	minimum = 0.034 (at node 5)
	maximum = 0.063 (at node 10)
Accepted flit rate average= 0.0463125
	minimum = 0.039 (at node 9)
	maximum = 0.06 (at node 0)
Injected packet length average = 1
Accepted packet length average = 1
Total in-flight flits = 19 (0 measured)
latency change    = 0.00985943
throughput change = 0.022942
Class 0:
Packet latency average = 20.8214
	minimum = 7
	maximum = 45
Network latency average = 20.8214
	minimum = 7
	maximum = 45
Slowest packet = 128212
Flit latency average = 20.8214
	minimum = 7
	maximum = 45
Slowest flit = 128212
Fragmentation average = 0
	minimum = 0
	maximum = 0
Injected packet rate average = 0.049
	minimum = 0.026 (at node 1)
	maximum = 0.074 (at node 13)
Accepted packet rate average = 0.049
	minimum = 0.024 (at node 14)
	maximum = 0.07 (at node 4)
Injected flit rate average = 0.049
	minimum = 0.026 (at node 1)
	maximum = 0.074 (at node 13)
Accepted flit rate average= 0.049
	minimum = 0.024 (at node 14)
	maximum = 0.07 (at node 4)
Injected packet length average = 1
Accepted packet length average = 1
Total in-flight flits = 19 (0 measured)
latency change    = 0.0162476
throughput change = 0.0548469
Warmed up ...Time used is 1500 cycles
Class 0:
Packet latency average = 20.4453
	minimum = 7
	maximum = 40
Network latency average = 20.4453
	minimum = 7
	maximum = 40
Slowest packet = 128857
Flit latency average = 20.5583
	minimum = 7
	maximum = 41
Slowest flit = 128582
Fragmentation average = 0
	minimum = 0
	maximum = 0
Injected packet rate average = 0.051125
	minimum = 0.038 (at node 11)
	maximum = 0.074 (at node 14)
Accepted packet rate average = 0.050375
	minimum = 0.026 (at node 9)
	maximum = 0.082 (at node 13)
Injected flit rate average = 0.051125
	minimum = 0.038 (at node 11)
	maximum = 0.074 (at node 14)
Accepted flit rate average= 0.050375
	minimum = 0.026 (at node 9)
	maximum = 0.082 (at node 13)
Injected packet length average = 1
Accepted packet length average = 1
Total in-flight flits = 25 (25 measured)
latency change    = 0.0183962
throughput change = 0.0272953
Class 0:
Packet latency average = 20.1798
	minimum = 7
	maximum = 40
Network latency average = 20.1798
	minimum = 7
	maximum = 40
Slowest packet = 128857
Flit latency average = 20.2446
	minimum = 7
	maximum = 41
Slowest flit = 128582
Fragmentation average = 0
	minimum = 0
	maximum = 0
Injected packet rate average = 0.0484375
	minimum = 0.035 (at node 3)
	maximum = 0.061 (at node 0)
Accepted packet rate average = 0.0488125
	minimum = 0.036 (at node 9)
	maximum = 0.07 (at node 13)
Injected flit rate average = 0.0484375
	minimum = 0.035 (at node 3)
	maximum = 0.061 (at node 0)
Accepted flit rate average= 0.0488125
	minimum = 0.036 (at node 9)
	maximum = 0.07 (at node 13)
Injected packet length average = 1
Accepted packet length average = 1
Total in-flight flits = 13 (13 measured)
latency change    = 0.0131578
throughput change = 0.0320102
Class 0:
Packet latency average = 20.1622
	minimum = 7
	maximum = 62
Network latency average = 20.1622
	minimum = 7
	maximum = 62
Slowest packet = 129520
Flit latency average = 20.2054
	minimum = 7
	maximum = 62
Slowest flit = 129520
Fragmentation average = 0
	minimum = 0
	maximum = 0
Injected packet rate average = 0.049
	minimum = 0.0373333 (at node 3)
	maximum = 0.0593333 (at node 14)
Accepted packet rate average = 0.0490833
	minimum = 0.0373333 (at node 9)
	maximum = 0.0666667 (at node 13)
Injected flit rate average = 0.049
	minimum = 0.0373333 (at node 3)
	maximum = 0.0593333 (at node 14)
Accepted flit rate average= 0.0490833
	minimum = 0.0373333 (at node 9)
	maximum = 0.0666667 (at node 13)
Injected packet length average = 1
Accepted packet length average = 1
Total in-flight flits = 17 (17 measured)
latency change    = 0.000871989
throughput change = 0.00551783
Draining all recorded packets ...
Draining remaining packets ...
Time taken is 3069 cycles
Class 0:
Packet latency average = 19.6101
	minimum = 7
	maximum = 51
Network latency average = 19.6101
	minimum = 7
	maximum = 51
Slowest packet = 130019
Flit latency average = 19.6101
	minimum = 7
	maximum = 51
Slowest flit = 130019
Fragmentation average = 0
	minimum = 0
	maximum = 0
Injected packet rate average = 0.04925
	minimum = 0.036 (at node 8)
	maximum = 0.064 (at node 15)
Accepted packet rate average = 0.047125
	minimum = 0.028 (at node 12)
	maximum = 0.058 (at node 7)
Injected flit rate average = 0.04925
	minimum = 0.036 (at node 8)
	maximum = 0.064 (at node 15)
Accepted flit rate average= 0.047125
	minimum = 0.028 (at node 12)
	maximum = 0.058 (at node 7)
Injected packet length average = 1
Accepted packet length average = 1
Total in-flight flits = 17 (0 measured)
latency change    = 1
throughput change = 1
Class 0:
Packet latency average = 20.0131
	minimum = 7
	maximum = 51
Network latency average = 20.0131
	minimum = 7
	maximum = 51
Slowest packet = 130019
Flit latency average = 20.0131
	minimum = 7
	maximum = 51
Slowest flit = 130019
Fragmentation average = 0
	minimum = 0
	maximum = 0
Injected packet rate average = 0.0486875
	minimum = 0.04 (at node 14)
	maximum = 0.061 (at node 6)
Accepted packet rate average = 0.047625
	minimum = 0.036 (at node 12)
	maximum = 0.059 (at node 14)
Injected flit rate average = 0.0486875
	minimum = 0.04 (at node 14)
	maximum = 0.061 (at node 6)
Accepted flit rate average= 0.047625
	minimum = 0.036 (at node 12)
	maximum = 0.059 (at node 14)
Injected packet length average = 1
Accepted packet length average = 1
Total in-flight flits = 17 (0 measured)
latency change    = 0.020139
throughput change = 0.0104987
Class 0:
Packet latency average = 19.3115
	minimum = 7
	maximum = 41
Network latency average = 19.3115
	minimum = 7
	maximum = 41
Slowest packet = 130595
Flit latency average = 19.3115
	minimum = 7
	maximum = 41
Slowest flit = 130595
Fragmentation average = 0
	minimum = 0
	maximum = 0
Injected packet rate average = 0.047875
	minimum = 0.03 (at node 14)
	maximum = 0.056 (at node 2)
Accepted packet rate average = 0.04775
	minimum = 0.038 (at node 2)
	maximum = 0.068 (at node 11)
Injected flit rate average = 0.047875
	minimum = 0.03 (at node 14)
	maximum = 0.056 (at node 2)
Accepted flit rate average= 0.04775
	minimum = 0.038 (at node 2)
	maximum = 0.068 (at node 11)
Injected packet length average = 1
Accepted packet length average = 1
Total in-flight flits = 18 (0 measured)
latency change    = 0.0363309
throughput change = 0.0026178
Warmed up ...Time used is 1500 cycles
Class 0:
Packet latency average = 19.9093
	minimum = 7
	maximum = 47
Network latency average = 19.9093
	minimum = 7
	maximum = 47
Slowest packet = 131263
Flit latency average = 20.1213
	minimum = 7
	maximum = 47
Slowest flit = 131263
Fragmentation average = 0
	minimum = 0
	maximum = 0
Injected packet rate average = 0.0545
	minimum = 0.034 (at node 3)
	maximum = 0.072 (at node 15)
Accepted packet rate average = 0.054625
	minimum = 0.032 (at node 12)
	maximum = 0.07 (at node 10)
Injected flit rate average = 0.0545
	minimum = 0.034 (at node 3)
	maximum = 0.072 (at node 15)
Accepted flit rate average= 0.054625
	minimum = 0.032 (at node 12)
	maximum = 0.07 (at node 10)
Injected packet length average = 1
Accepted packet length average = 1
Total in-flight flits = 17 (17 measured)
latency change    = 0.0300256
throughput change = 0.125858
Class 0:
Packet latency average = 20.261
	minimum = 7
	maximum = 55
Network latency average = 20.261
	minimum = 7
	maximum = 55
Slowest packet = 131483
Flit latency average = 20.364
	minimum = 7
	maximum = 55
Slowest flit = 131483
Fragmentation average = 0
	minimum = 0
	maximum = 0
Injected packet rate average = 0.0521875
	minimum = 0.041 (at node 9)
	maximum = 0.065 (at node 15)
Accepted packet rate average = 0.052375
	minimum = 0.038 (at node 11)
	maximum = 0.07 (at node 6)
Injected flit rate average = 0.0521875
	minimum = 0.041 (at node 9)
	maximum = 0.065 (at node 15)
Accepted flit rate average= 0.052375
	minimum = 0.038 (at node 11)
	maximum = 0.07 (at node 6)
Injected packet length average = 1
Accepted packet length average = 1
Total in-flight flits = 15 (15 measured)
latency change    = 0.0173569
throughput change = 0.0429594
Class 0:
Packet latency average = 20.2651
	minimum = 7
	maximum = 55
Network latency average = 20.2651
	minimum = 7
	maximum = 55
Slowest packet = 131483
Flit latency average = 20.3361
	minimum = 7
	maximum = 55
Slowest flit = 131483
Fragmentation average = 0
	minimum = 0
	maximum = 0
Injected packet rate average = 0.0504583
	minimum = 0.042 (at node 12)
	maximum = 0.0593333 (at node 7)
Accepted packet rate average = 0.0505833
	minimum = 0.038 (at node 14)
	maximum = 0.0606667 (at node 6)
Injected flit rate average = 0.0504583
	minimum = 0.042 (at node 12)
	maximum = 0.0593333 (at node 7)
Accepted flit rate average= 0.0505833
	minimum = 0.038 (at node 14)
	maximum = 0.0606667 (at node 6)
Injected packet length average = 1
Accepted packet length average = 1
Total in-flight flits = 15 (15 measured)
latency change    = 0.000201063
throughput change = 0.0354201
Class 0:
Packet latency average = 20.3306
	minimum = 7
	maximum = 55
Network latency average = 20.3306
	minimum = 7
	maximum = 55
Slowest packet = 131483
Flit latency average = 20.3829
	minimum = 7
	maximum = 55
Slowest flit = 131483
Fragmentation average = 0
	minimum = 0
	maximum = 0
Injected packet rate average = 0.050625
	minimum = 0.0425 (at node 9)
	maximum = 0.057 (at node 15)
Accepted packet rate average = 0.0508438
	minimum = 0.0395 (at node 14)
	maximum = 0.06 (at node 6)
Injected flit rate average = 0.050625
	minimum = 0.0425 (at node 9)
	maximum = 0.057 (at node 15)
Accepted flit rate average= 0.0508438
	minimum = 0.0395 (at node 14)
	maximum = 0.06 (at node 6)
Injected packet length average = 1
Accepted packet length average = 1
Total in-flight flits = 11 (11 measured)
latency change    = 0.00322616
throughput change = 0.0051219
Draining all recorded packets ...
Draining remaining packets ...
Time taken is 3549 cycles
====== Overall Traffic Statistics ======
====== Traffic class 0 ======
Packet latency average = 20.5632 (50 samples)
	minimum = 7 (50 samples)
	maximum = 58.6 (50 samples)
Network latency average = 20.5626 (50 samples)
	minimum = 7 (50 samples)
	maximum = 58.4 (50 samples)
Flit latency average = 20.5958 (50 samples)
	minimum = 7 (50 samples)
	maximum = 58.8 (50 samples)
Fragmentation average = 0 (50 samples)
	minimum = 0 (50 samples)
	maximum = 0 (50 samples)
Injected packet rate average = 0.0502224 (50 samples)
	minimum = 0.0406447 (50 samples)
	maximum = 0.059454 (50 samples)
Accepted packet rate average = 0.0502172 (50 samples)
	minimum = 0.0410707 (50 samples)
	maximum = 0.0612867 (50 samples)
Injected flit rate average = 0.0502224 (50 samples)
	minimum = 0.0406447 (50 samples)
	maximum = 0.059454 (50 samples)
Accepted flit rate average = 0.0502172 (50 samples)
	minimum = 0.0410707 (50 samples)
	maximum = 0.0612867 (50 samples)
Injected packet size average = 1 (50 samples)
Accepted packet size average = 1 (50 samples)
Hops average = 3.54067 (50 samples)
Total run time 1.99679
