BEGIN Configuration File: /tmp/tmpk89s9g8h.cfg
topology = mesh;
k = 4;
n = 2;
routing_function = planar_adapt;
num_vcs = 4;
vc_buf_size = 4;
wait_for_tail_credit = 1;
vc_allocator = islip;
sw_allocator = islip;
alloc_iters = 1;
credit_delay = 2;
routing_delay = 1;
vc_alloc_delay = 1;
sw_alloc_delay = 1;
input_speedup = 2;
output_speedup = 1;
internal_speedup = 1.0;
traffic = transpose;
packet_size = 1;
sim_type = latency;
injection_rate = 0.01;
warmup_periods = 3;
sample_period = 500;
sim_count = 50;
seed = 0;
link_failures = 0;
fail_seed = 101;

END Configuration File: /tmp/tmpk89s9g8h.cfg
Class 0:
Packet latency average = 19.0247
	minimum = 7
	maximum = 37
Network latency average = 19.0247
	minimum = 7
	maximum = 37
Slowest packet = 1
Flit latency average = 19.0247
	minimum = 7
	maximum = 37
Slowest flit = 1
Fragmentation average = 0
	minimum = 0
	maximum = 0
Injected packet rate average = 0.010375
	minimum = 0.004 (at node 5)
	maximum = 0.016 (at node 9)
Accepted packet rate average = 0.010125
	minimum = 0.004 (at node 5)
	maximum = 0.016 (at node 6)
Injected flit rate average = 0.010375
	minimum = 0.004 (at node 5)
	maximum = 0.016 (at node 9)
Accepted flit rate average= 0.010125
	minimum = 0.004 (at node 5)
	maximum = 0.016 (at node 6)
Injected packet length average = 1
Accepted packet length average = 1
Total in-flight flits = 2 (0 measured)
latency change    = 1
throughput change = 1
Class 0:
Packet latency average = 19.1688
	minimum = 7
	maximum = 37
Network latency average = 19.1688
	minimum = 7
	maximum = 37
Slowest packet = 1
Flit latency average = 19.1688
	minimum = 7
	maximum = 37
Slowest flit = 1
Fragmentation average = 0
	minimum = 0
	maximum = 0
Injected packet rate average = 0.00975
	minimum = 0.004 (at node 11)
	maximum = 0.014 (at node 13)
Accepted packet rate average = 0.009625
	minimum = 0.003 (at node 14)
	maximum = 0.014 (at node 7)
Injected flit rate average = 0.00975
	minimum = 0.004 (at node 11)
	maximum = 0.014 (at node 13)
Accepted flit rate average= 0.009625
	minimum = 0.003 (at node 14)
	maximum = 0.014 (at node 7)
Injected packet length average = 1
Accepted packet length average = 1
Total in-flight flits = 2 (0 measured)
latency change    = 0.00751949
throughput change = 0.0519481
Class 0:
Packet latency average = 18.4286
	minimum = 7
	maximum = 37
Network latency average = 18.4286
	minimum = 7
	maximum = 37
Slowest packet = 158
Flit latency average = 18.4286
	minimum = 7
	maximum = 37
Slowest flit = 158
Fragmentation average = 0
	minimum = 0
	maximum = 0
Injected packet rate average = 0.00925
	minimum = 0.002 (at node 11)
	maximum = 0.016 (at node 10)
Accepted packet rate average = 0.00875
	minimum = 0.002 (at node 7)
	maximum = 0.016 (at node 10)
Injected flit rate average = 0.00925
	minimum = 0.002 (at node 11)
	maximum = 0.016 (at node 10)
Accepted flit rate average= 0.00875
	minimum = 0.002 (at node 7)
	maximum = 0.016 (at node 10)
Injected packet length average = 1
Accepted packet length average = 1
Total in-flight flits = 6 (0 measured)
latency change    = 0.0401691
throughput change = 0.1
Warmed up ...Time used is 1500 cycles
Class 0:
Packet latency average = 20.7333
	minimum = 7
	maximum = 37
Network latency average = 20.7333
	minimum = 7
	maximum = 37
Slowest packet = 239
Flit latency average = 21.4444
	minimum = 7
	maximum = 37
Slowest flit = 223
Fragmentation average = 0
	minimum = 0
	maximum = 0
Injected packet rate average = 0.00975
	minimum = 0.004 (at node 3)
	maximum = 0.018 (at node 8)
Accepted packet rate average = 0.010125
	minimum = 0.004 (at node 1)
	maximum = 0.018 (at node 2)
Injected flit rate average = 0.00975
	minimum = 0.004 (at node 3)
	maximum = 0.018 (at node 8)
Accepted flit rate average= 0.010125
	minimum = 0.004 (at node 1)
	maximum = 0.018 (at node 2)
Injected packet length average = 1
Accepted packet length average = 1
Total in-flight flits = 3 (3 measured)
latency change    = 0.111162
throughput change = 0.135802
Class 0:
Packet latency average = 20.0065
	minimum = 7
	maximum = 37
Network latency average = 20.0065
	minimum = 7
	maximum = 37
Slowest packet = 239
Flit latency average = 20.3962
	minimum = 7
	maximum = 37
Slowest flit = 223
Fragmentation average = 0
	minimum = 0
	maximum = 0
Injected packet rate average = 0.0096875
	minimum = 0.005 (at node 7)
	maximum = 0.016 (at node 13)
Accepted packet rate average = 0.0099375
	minimum = 0.005 (at node 13)
	maximum = 0.016 (at node 7)
Injected flit rate average = 0.0096875
	minimum = 0.005 (at node 7)
	maximum = 0.016 (at node 13)
Accepted flit rate average= 0.0099375
	minimum = 0.005 (at node 13)
	maximum = 0.016 (at node 7)
Injected packet length average = 1
Accepted packet length average = 1
Total in-flight flits = 2 (2 measured)
latency change    = 0.036328
throughput change = 0.0188679
Class 0:
Packet latency average = 20.1646
	minimum = 7
	maximum = 37
Network latency average = 20.1646
	minimum = 7
	maximum = 37
Slowest packet = 239
Flit latency average = 20.4156
	minimum = 7
	maximum = 37
Slowest flit = 223
Fragmentation average = 0
	minimum = 0
	maximum = 0
Injected packet rate average = 0.00991667
	minimum = 0.00733333 (at node 7)
	maximum = 0.0133333 (at node 13)
Accepted packet rate average = 0.010125
	minimum = 0.00666667 (at node 13)
	maximum = 0.0133333 (at node 7)
Injected flit rate average = 0.00991667
	minimum = 0.00733333 (at node 7)
	maximum = 0.0133333 (at node 13)
Accepted flit rate average= 0.010125
	minimum = 0.00666667 (at node 13)
	maximum = 0.0133333 (at node 7)
Injected packet length average = 1
Accepted packet length average = 1
Total in-flight flits = 1 (1 measured)
latency change    = 0.00783657
throughput change = 0.0185185
Class 0:
Packet latency average = 19.9617
	minimum = 7
	maximum = 37
Network latency average = 19.9617
	minimum = 7
	maximum = 37
Slowest packet = 239
Flit latency average = 20.1567
	minimum = 7
	maximum = 37
Slowest flit = 223
Fragmentation average = 0
	minimum = 0
	maximum = 0
Injected packet rate average = 0.00990625
	minimum = 0.0075 (at node 1)
	maximum = 0.013 (at node 8)
Accepted packet rate average = 0.00996875
	minimum = 0.0075 (at node 4)
	maximum = 0.013 (at node 2)
Injected flit rate average = 0.00990625
	minimum = 0.0075 (at node 1)
	maximum = 0.013 (at node 8)
Accepted flit rate average= 0.00996875
	minimum = 0.0075 (at node 4)
	maximum = 0.013 (at node 2)
Injected packet length average = 1
Accepted packet length average = 1
Total in-flight flits = 4 (4 measured)
latency change    = 0.0101643
throughput change = 0.015674
Draining all recorded packets ...
Draining remaining packets ...
Time taken is 3550 cycles
Class 0:
Packet latency average = 19.1875
	minimum = 7
	maximum = 37
Network latency average = 19.1875
	minimum = 7
	maximum = 37
Slowest packet = 564
Flit latency average = 19.1875
	minimum = 7
	maximum = 37
Slowest flit = 564
Fragmentation average = 0
	minimum = 0
	maximum = 0
Injected packet rate average = 0.008125
	minimum = 0.004 (at node 5)
	maximum = 0.016 (at node 11)
Accepted packet rate average = 0.008
	minimum = 0.004 (at node 2)
	maximum = 0.016 (at node 14)
Injected flit rate average = 0.008125
	minimum = 0.004 (at node 5)
	maximum = 0.016 (at node 11)
Accepted flit rate average= 0.008
	minimum = 0.004 (at node 2)
	maximum = 0.016 (at node 14)
Injected packet length average = 1
Accepted packet length average = 1
Total in-flight flits = 1 (0 measured)
latency change    = 1
throughput change = 1
Class 0:
Packet latency average = 18.8273
	minimum = 7
	maximum = 39
Network latency average = 18.8273
	minimum = 7
	maximum = 39
Slowest packet = 629
Flit latency average = 18.8273
	minimum = 7
	maximum = 39
Slowest flit = 629
Fragmentation average = 0
	minimum = 0
	maximum = 0
Injected packet rate average = 0.009
	minimum = 0.006 (at node 8)
	maximum = 0.016 (at node 10)
Accepted packet rate average = 0.0086875
	minimum = 0.006 (at node 2)
	maximum = 0.016 (at node 10)
Injected flit rate average = 0.009
	minimum = 0.006 (at node 8)
	maximum = 0.016 (at node 10)
Accepted flit rate average= 0.0086875
	minimum = 0.006 (at node 2)
	maximum = 0.016 (at node 10)
Injected packet length average = 1
Accepted packet length average = 1
Total in-flight flits = 5 (0 measured)
latency change    = 0.0191297
throughput change = 0.0791367
Class 0:
Packet latency average = 20.2394
	minimum = 7
	maximum = 37
Network latency average = 20.2394
	minimum = 7
	maximum = 37
Slowest packet = 690
Flit latency average = 20.2394
	minimum = 7
	maximum = 37
Slowest flit = 690
Fragmentation average = 0
	minimum = 0
	maximum = 0
Injected packet rate average = 0.009
	minimum = 0.004 (at node 9)
	maximum = 0.014 (at node 6)
Accepted packet rate average = 0.008875
	minimum = 0.004 (at node 6)
	maximum = 0.016 (at node 9)
Injected flit rate average = 0.009
	minimum = 0.004 (at node 9)
	maximum = 0.014 (at node 6)
Accepted flit rate average= 0.008875
	minimum = 0.004 (at node 6)
	maximum = 0.016 (at node 9)
Injected packet length average = 1
Accepted packet length average = 1
Total in-flight flits = 6 (0 measured)
latency change    = 0.0697697
throughput change = 0.0211268
Warmed up ...Time used is 1500 cycles
Class 0:
Packet latency average = 17.625
	minimum = 7
	maximum = 37
Network latency average = 17.625
	minimum = 7
	maximum = 37
Slowest packet = 772
Flit latency average = 18.0465
	minimum = 7
	maximum = 37
Slowest flit = 764
Fragmentation average = 0
	minimum = 0
	maximum = 0
Injected packet rate average = 0.01025
	minimum = 0.002 (at node 2)
	maximum = 0.02 (at node 15)
Accepted packet rate average = 0.01075
	minimum = 0.002 (at node 8)
	maximum = 0.02 (at node 15)
Injected flit rate average = 0.01025
	minimum = 0.002 (at node 2)
	maximum = 0.02 (at node 15)
Accepted flit rate average= 0.01075
	minimum = 0.002 (at node 8)
	maximum = 0.02 (at node 15)
Injected packet length average = 1
Accepted packet length average = 1
Total in-flight flits = 2 (2 measured)
latency change    = 0.148337
throughput change = 0.174419
Class 0:
Packet latency average = 19.8289
	minimum = 7
	maximum = 37
Network latency average = 19.8289
	minimum = 7
	maximum = 37
Slowest packet = 772
Flit latency average = 19.9747
	minimum = 7
	maximum = 37
Slowest flit = 764
Fragmentation average = 0
	minimum = 0
	maximum = 0
Injected packet rate average = 0.009875
	minimum = 0.005 (at node 6)
	maximum = 0.015 (at node 3)
Accepted packet rate average = 0.009875
	minimum = 0.006 (at node 8)
	maximum = 0.015 (at node 12)
Injected flit rate average = 0.009875
	minimum = 0.005 (at node 6)
	maximum = 0.015 (at node 3)
Accepted flit rate average= 0.009875
	minimum = 0.006 (at node 8)
	maximum = 0.015 (at node 12)
Injected packet length average = 1
Accepted packet length average = 1
Total in-flight flits = 6 (6 measured)
latency change    = 0.111148
throughput change = 0.0886076
Class 0:
Packet latency average = 20.038
	minimum = 7
	maximum = 37
Network latency average = 20.038
	minimum = 7
	maximum = 37
Slowest packet = 772
Flit latency average = 20.1276
	minimum = 7
	maximum = 37
Slowest flit = 764
Fragmentation average = 0
	minimum = 0
	maximum = 0
Injected packet rate average = 0.01025
	minimum = 0.00533333 (at node 10)
	maximum = 0.018 (at node 3)
Accepted packet rate average = 0.010125
	minimum = 0.006 (at node 8)
	maximum = 0.016 (at node 12)
Injected flit rate average = 0.01025
	minimum = 0.00533333 (at node 10)
	maximum = 0.018 (at node 3)
Accepted flit rate average= 0.010125
	minimum = 0.006 (at node 8)
	maximum = 0.016 (at node 12)
Injected packet length average = 1
Accepted packet length average = 1
Total in-flight flits = 9 (9 measured)
latency change    = 0.0104316
throughput change = 0.0246914
Class 0:
Packet latency average = 20.2724
	minimum = 7
	maximum = 45
Network latency average = 20.2724
	minimum = 7
	maximum = 45
Slowest packet = 1033
Flit latency average = 20.3365
	minimum = 7
	maximum = 45
Slowest flit = 1033
Fragmentation average = 0
	minimum = 0
	maximum = 0
Injected packet rate average = 0.00996875
	minimum = 0.0055 (at node 2)
	maximum = 0.0165 (at node 13)
Accepted packet rate average = 0.0099375
	minimum = 0.0055 (at node 8)
	maximum = 0.0155 (at node 7)
Injected flit rate average = 0.00996875
	minimum = 0.0055 (at node 2)
	maximum = 0.0165 (at node 13)
Accepted flit rate average= 0.0099375
	minimum = 0.0055 (at node 8)
	maximum = 0.0155 (at node 7)
Injected packet length average = 1
Accepted packet length average = 1
Total in-flight flits = 7 (7 measured)
latency change    = 0.0115655
throughput change = 0.0188679
Class 0:
Packet latency average = 20.2066
	minimum = 7
	maximum = 45
Network latency average = 20.2066
	minimum = 7
	maximum = 45
Slowest packet = 1033
Flit latency average = 20.2588
	minimum = 7
	maximum = 45
Slowest flit = 1033
Fragmentation average = 0
	minimum = 0
	maximum = 0
Injected packet rate average = 0.00995
	minimum = 0.0072 (at node 2)
	maximum = 0.0156 (at node 13)
Accepted packet rate average = 0.00995
	minimum = 0.0068 (at node 8)
	maximum = 0.0156 (at node 7)
Injected flit rate average = 0.00995
	minimum = 0.0072 (at node 2)
	maximum = 0.0156 (at node 13)
Accepted flit rate average= 0.00995
	minimum = 0.0068 (at node 8)
	maximum = 0.0156 (at node 7)
Injected packet length average = 1
Accepted packet length average = 1
Total in-flight flits = 6 (6 measured)
latency change    = 0.00325652
throughput change = 0.00125628
Draining all recorded packets ...
Draining remaining packets ...
Time taken is 4047 cycles
Class 0:
Packet latency average = 19.236
	minimum = 7
	maximum = 37
Network latency average = 19.236
	minimum = 7
	maximum = 37
Slowest packet = 1184
Flit latency average = 19.236
	minimum = 7
	maximum = 37
Slowest flit = 1184
Fragmentation average = 0
	minimum = 0
	maximum = 0
Injected packet rate average = 0.011375
	minimum = 0.004 (at node 5)
	maximum = 0.018 (at node 1)
Accepted packet rate average = 0.011125
	minimum = 0.004 (at node 5)
	maximum = 0.018 (at node 4)
Injected flit rate average = 0.011375
	minimum = 0.004 (at node 5)
	maximum = 0.018 (at node 1)
Accepted flit rate average= 0.011125
	minimum = 0.004 (at node 5)
	maximum = 0.018 (at node 4)
Injected packet length average = 1
Accepted packet length average = 1
Total in-flight flits = 2 (0 measured)
latency change    = 1
throughput change = 1
Class 0:
Packet latency average = 18.9259
	minimum = 7
	maximum = 41
Network latency average = 18.9259
	minimum = 7
	maximum = 41
Slowest packet = 1315
Flit latency average = 18.9259
	minimum = 7
	maximum = 41
Slowest flit = 1315
Fragmentation average = 0
	minimum = 0
	maximum = 0
Injected packet rate average = 0.012
	minimum = 0.007 (at node 8)
	maximum = 0.017 (at node 6)
Accepted packet rate average = 0.0118125
	minimum = 0.007 (at node 2)
	maximum = 0.017 (at node 9)
Injected flit rate average = 0.012
	minimum = 0.007 (at node 8)
	maximum = 0.017 (at node 6)
Accepted flit rate average= 0.0118125
	minimum = 0.007 (at node 2)
	maximum = 0.017 (at node 9)
Injected packet length average = 1
Accepted packet length average = 1
Total in-flight flits = 3 (0 measured)
latency change    = 0.0163812
throughput change = 0.0582011
Class 0:
Packet latency average = 20.3793
	minimum = 7
	maximum = 46
Network latency average = 20.3793
	minimum = 7
	maximum = 46
Slowest packet = 1371
Flit latency average = 20.3793
	minimum = 7
	maximum = 46
Slowest flit = 1371
Fragmentation average = 0
	minimum = 0
	maximum = 0
Injected packet rate average = 0.010625
	minimum = 0.004 (at node 5)
	maximum = 0.016 (at node 1)
Accepted packet rate average = 0.010875
	minimum = 0.004 (at node 5)
	maximum = 0.016 (at node 4)
Injected flit rate average = 0.010625
	minimum = 0.004 (at node 5)
	maximum = 0.016 (at node 1)
Accepted flit rate average= 0.010875
	minimum = 0.004 (at node 5)
	maximum = 0.016 (at node 4)
Injected packet length average = 1
Accepted packet length average = 1
Total in-flight flits = 1 (0 measured)
latency change    = 0.0713167
throughput change = 0.0862069
Warmed up ...Time used is 1500 cycles
Class 0:
Packet latency average = 20.5526
	minimum = 7
	maximum = 37
Network latency average = 20.5526
	minimum = 7
	maximum = 37
Slowest packet = 1455
Flit latency average = 20.5065
	minimum = 7
	maximum = 37
Slowest flit = 1455
Fragmentation average = 0
	minimum = 0
	maximum = 0
Injected packet rate average = 0.0095
	minimum = 0.002 (at node 5)
	maximum = 0.02 (at node 7)
Accepted packet rate average = 0.009625
	minimum = 0.002 (at node 5)
	maximum = 0.02 (at node 13)
Injected flit rate average = 0.0095
	minimum = 0.002 (at node 5)
	maximum = 0.02 (at node 7)
Accepted flit rate average= 0.009625
	minimum = 0.002 (at node 5)
	maximum = 0.02 (at node 13)
Injected packet length average = 1
Accepted packet length average = 1
Total in-flight flits = 0 (0 measured)
latency change    = 0.00843304
throughput change = 0.12987
Class 0:
Packet latency average = 20.7324
	minimum = 7
	maximum = 37
Network latency average = 20.7324
	minimum = 7
	maximum = 37
Slowest packet = 1455
Flit latency average = 20.7063
	minimum = 7
	maximum = 37
Slowest flit = 1455
Fragmentation average = 0
	minimum = 0
	maximum = 0
Injected packet rate average = 0.00925
	minimum = 0.004 (at node 2)
	maximum = 0.015 (at node 7)
Accepted packet rate average = 0.0089375
	minimum = 0.004 (at node 5)
	maximum = 0.014 (at node 12)
Injected flit rate average = 0.00925
	minimum = 0.004 (at node 2)
	maximum = 0.015 (at node 7)
Accepted flit rate average= 0.0089375
	minimum = 0.004 (at node 5)
	maximum = 0.014 (at node 12)
Injected packet length average = 1
Accepted packet length average = 1
Total in-flight flits = 6 (6 measured)
latency change    = 0.00867062
throughput change = 0.0769231
Class 0:
Packet latency average = 19.3982
	minimum = 7
	maximum = 37
Network latency average = 19.3982
	minimum = 7
	maximum = 37
Slowest packet = 1455
Flit latency average = 19.3874
	minimum = 7
	maximum = 37
Slowest flit = 1455
Fragmentation average = 0
	minimum = 0
	maximum = 0
Injected packet rate average = 0.009375
	minimum = 0.004 (at node 2)
	maximum = 0.012 (at node 1)
Accepted packet rate average = 0.00925
	minimum = 0.00333333 (at node 8)
	maximum = 0.012 (at node 4)
Injected flit rate average = 0.009375
	minimum = 0.004 (at node 2)
	maximum = 0.012 (at node 1)
Accepted flit rate average= 0.00925
	minimum = 0.00333333 (at node 8)
	maximum = 0.012 (at node 4)
Injected packet length average = 1
Accepted packet length average = 1
Total in-flight flits = 4 (4 measured)
latency change    = 0.0687798
throughput change = 0.0337838
Class 0:
Packet latency average = 19.5714
	minimum = 7
	maximum = 37
Network latency average = 19.5714
	minimum = 7
	maximum = 37
Slowest packet = 1455
Flit latency average = 19.5629
	minimum = 7
	maximum = 37
Slowest flit = 1455
Fragmentation average = 0
	minimum = 0
	maximum = 0
Injected packet rate average = 0.0095
	minimum = 0.005 (at node 2)
	maximum = 0.013 (at node 1)
Accepted packet rate average = 0.0094375
	minimum = 0.005 (at node 8)
	maximum = 0.013 (at node 4)
Injected flit rate average = 0.0095
	minimum = 0.005 (at node 2)
	maximum = 0.013 (at node 1)
Accepted flit rate average= 0.0094375
	minimum = 0.005 (at node 8)
	maximum = 0.013 (at node 4)
Injected packet length average = 1
Accepted packet length average = 1
Total in-flight flits = 3 (3 measured)
latency change    = 0.0088516
throughput change = 0.0198675
Class 0:
Packet latency average = 19.6821
	minimum = 7
	maximum = 39
Network latency average = 19.6821
	minimum = 7
	maximum = 39
Slowest packet = 1759
Flit latency average = 19.6752
	minimum = 7
	maximum = 39
Slowest flit = 1759
Fragmentation average = 0
	minimum = 0
	maximum = 0
Injected packet rate average = 0.009775
	minimum = 0.0072 (at node 6)
	maximum = 0.0124 (at node 1)
Accepted packet rate average = 0.009775
	minimum = 0.0072 (at node 9)
	maximum = 0.0124 (at node 4)
Injected flit rate average = 0.009775
	minimum = 0.0072 (at node 6)
	maximum = 0.0124 (at node 1)
Accepted flit rate average= 0.009775
	minimum = 0.0072 (at node 9)
	maximum = 0.0124 (at node 4)
Injected packet length average = 1
Accepted packet length average = 1
Total in-flight flits = 1 (1 measured)
latency change    = 0.00562049
throughput change = 0.0345269
Class 0:
Packet latency average = 19.8502
	minimum = 7
	maximum = 39
Network latency average = 19.8502
	minimum = 7
	maximum = 39
Slowest packet = 1759
Flit latency average = 19.8442
	minimum = 7
	maximum = 39
Slowest flit = 1759
Fragmentation average = 0
	minimum = 0
	maximum = 0
Injected packet rate average = 0.00991667
	minimum = 0.00733333 (at node 6)
	maximum = 0.013 (at node 7)
Accepted packet rate average = 0.00989583
	minimum = 0.00733333 (at node 9)
	maximum = 0.0126667 (at node 13)
Injected flit rate average = 0.00991667
	minimum = 0.00733333 (at node 6)
	maximum = 0.013 (at node 7)
Accepted flit rate average= 0.00989583
	minimum = 0.00733333 (at node 9)
	maximum = 0.0126667 (at node 13)
Injected packet length average = 1
Accepted packet length average = 1
Total in-flight flits = 2 (2 measured)
latency change    = 0.00847143
throughput change = 0.0122105
Draining all recorded packets ...
Draining remaining packets ...
Time taken is 4546 cycles
Class 0:
Packet latency average = 20.7442
	minimum = 7
	maximum = 38
Network latency average = 20.7442
	minimum = 7
	maximum = 38
Slowest packet = 1945
Flit latency average = 20.7442
	minimum = 7
	maximum = 38
Slowest flit = 1945
Fragmentation average = 0
	minimum = 0
	maximum = 0
Injected packet rate average = 0.01075
	minimum = 0.004 (at node 9)
	maximum = 0.018 (at node 2)
Accepted packet rate average = 0.01075
	minimum = 0.004 (at node 6)
	maximum = 0.018 (at node 8)
Injected flit rate average = 0.01075
	minimum = 0.004 (at node 9)
	maximum = 0.018 (at node 2)
Accepted flit rate average= 0.01075
	minimum = 0.004 (at node 6)
	maximum = 0.018 (at node 8)
Injected packet length average = 1
Accepted packet length average = 1
Total in-flight flits = 0 (0 measured)
latency change    = 1
throughput change = 1
Class 0:
Packet latency average = 19.9818
	minimum = 7
	maximum = 38
Network latency average = 19.9818
	minimum = 7
	maximum = 38
Slowest packet = 1945
Flit latency average = 19.9818
	minimum = 7
	maximum = 38
Slowest flit = 1945
Fragmentation average = 0
	minimum = 0
	maximum = 0
Injected packet rate average = 0.01075
	minimum = 0.006 (at node 10)
	maximum = 0.015 (at node 2)
Accepted packet rate average = 0.0103125
	minimum = 0.006 (at node 10)
	maximum = 0.013 (at node 7)
Injected flit rate average = 0.01075
	minimum = 0.006 (at node 10)
	maximum = 0.015 (at node 2)
Accepted flit rate average= 0.0103125
	minimum = 0.006 (at node 10)
	maximum = 0.013 (at node 7)
Injected packet length average = 1
Accepted packet length average = 1
Total in-flight flits = 7 (0 measured)
latency change    = 0.0381531
throughput change = 0.0424242
Class 0:
Packet latency average = 19.8876
	minimum = 7
	maximum = 37
Network latency average = 19.8876
	minimum = 7
	maximum = 37
Slowest packet = 2096
Flit latency average = 19.8876
	minimum = 7
	maximum = 37
Slowest flit = 2096
Fragmentation average = 0
	minimum = 0
	maximum = 0
Injected packet rate average = 0.01075
	minimum = 0.002 (at node 14)
	maximum = 0.018 (at node 10)
Accepted packet rate average = 0.011125
	minimum = 0.002 (at node 11)
	maximum = 0.02 (at node 7)
Injected flit rate average = 0.01075
	minimum = 0.002 (at node 14)
	maximum = 0.018 (at node 10)
Accepted flit rate average= 0.011125
	minimum = 0.002 (at node 11)
	maximum = 0.02 (at node 7)
Injected packet length average = 1
Accepted packet length average = 1
Total in-flight flits = 4 (0 measured)
latency change    = 0.00473549
throughput change = 0.0730337
Warmed up ...Time used is 1500 cycles
Class 0:
Packet latency average = 18.5385
	minimum = 7
	maximum = 37
Network latency average = 18.5385
	minimum = 7
	maximum = 37
Slowest packet = 2194
Flit latency average = 19.4638
	minimum = 7
	maximum = 37
Slowest flit = 2178
Fragmentation average = 0
	minimum = 0
	maximum = 0
Injected packet rate average = 0.008375
	minimum = 0.004 (at node 2)
	maximum = 0.012 (at node 7)
Accepted packet rate average = 0.008625
	minimum = 0.004 (at node 7)
	maximum = 0.012 (at node 12)
Injected flit rate average = 0.008375
	minimum = 0.004 (at node 2)
	maximum = 0.012 (at node 7)
Accepted flit rate average= 0.008625
	minimum = 0.004 (at node 7)
	maximum = 0.012 (at node 12)
Injected packet length average = 1
Accepted packet length average = 1
Total in-flight flits = 2 (2 measured)
latency change    = 0.0727773
throughput change = 0.289855
Class 0:
Packet latency average = 18.5634
	minimum = 7
	maximum = 37
Network latency average = 18.5634
	minimum = 7
	maximum = 37
Slowest packet = 2194
Flit latency average = 19
	minimum = 7
	maximum = 37
Slowest flit = 2178
Fragmentation average = 0
	minimum = 0
	maximum = 0
Injected packet rate average = 0.009125
	minimum = 0.007 (at node 1)
	maximum = 0.012 (at node 9)
Accepted packet rate average = 0.009125
	minimum = 0.007 (at node 3)
	maximum = 0.012 (at node 6)
Injected flit rate average = 0.009125
	minimum = 0.007 (at node 1)
	maximum = 0.012 (at node 9)
Accepted flit rate average= 0.009125
	minimum = 0.007 (at node 3)
	maximum = 0.012 (at node 6)
Injected packet length average = 1
Accepted packet length average = 1
Total in-flight flits = 4 (4 measured)
latency change    = 0.00134236
throughput change = 0.0547945
Class 0:
Packet latency average = 18.5442
	minimum = 7
	maximum = 37
Network latency average = 18.5442
	minimum = 7
	maximum = 37
Slowest packet = 2194
Flit latency average = 18.8356
	minimum = 7
	maximum = 37
Slowest flit = 2178
Fragmentation average = 0
	minimum = 0
	maximum = 0
Injected packet rate average = 0.00908333
	minimum = 0.006 (at node 12)
	maximum = 0.012 (at node 7)
Accepted packet rate average = 0.009125
	minimum = 0.006 (at node 3)
	maximum = 0.012 (at node 13)
Injected flit rate average = 0.00908333
	minimum = 0.006 (at node 12)
	maximum = 0.012 (at node 7)
Accepted flit rate average= 0.009125
	minimum = 0.006 (at node 3)
	maximum = 0.012 (at node 13)
Injected packet length average = 1
Accepted packet length average = 1
Total in-flight flits = 3 (3 measured)
latency change    = 0.00103505
throughput change = 0
Class 0:
Packet latency average = 18.5786
	minimum = 7
	maximum = 37
Network latency average = 18.5786
	minimum = 7
	maximum = 37
Slowest packet = 2194
Flit latency average = 18.7888
	minimum = 7
	maximum = 37
Slowest flit = 2178
Fragmentation average = 0
	minimum = 0
	maximum = 0
Injected packet rate average = 0.009375
	minimum = 0.006 (at node 3)
	maximum = 0.012 (at node 7)
Accepted packet rate average = 0.00946875
	minimum = 0.007 (at node 12)
	maximum = 0.012 (at node 13)
Injected flit rate average = 0.009375
	minimum = 0.006 (at node 3)
	maximum = 0.012 (at node 7)
Accepted flit rate average= 0.00946875
	minimum = 0.007 (at node 12)
	maximum = 0.012 (at node 13)
Injected packet length average = 1
Accepted packet length average = 1
Total in-flight flits = 1 (1 measured)
latency change    = 0.00185209
throughput change = 0.0363036
Class 0:
Packet latency average = 18.9003
	minimum = 7
	maximum = 38
Network latency average = 18.9003
	minimum = 7
	maximum = 38
Slowest packet = 2543
Flit latency average = 19.0623
	minimum = 7
	maximum = 38
Slowest flit = 2543
Fragmentation average = 0
	minimum = 0
	maximum = 0
Injected packet rate average = 0.00955
	minimum = 0.0068 (at node 3)
	maximum = 0.012 (at node 5)
Accepted packet rate average = 0.009625
	minimum = 0.0072 (at node 0)
	maximum = 0.012 (at node 5)
Injected flit rate average = 0.00955
	minimum = 0.0068 (at node 3)
	maximum = 0.012 (at node 5)
Accepted flit rate average= 0.009625
	minimum = 0.0072 (at node 0)
	maximum = 0.012 (at node 5)
Injected packet length average = 1
Accepted packet length average = 1
Total in-flight flits = 1 (1 measured)
latency change    = 0.0170192
throughput change = 0.0162338
Draining all recorded packets ...
Draining remaining packets ...
Time taken is 4059 cycles
Class 0:
Packet latency average = 18.5385
	minimum = 7
	maximum = 37
Network latency average = 18.5385
	minimum = 7
	maximum = 37
Slowest packet = 2583
Flit latency average = 18.5385
	minimum = 7
	maximum = 37
Slowest flit = 2583
Fragmentation average = 0
	minimum = 0
	maximum = 0
Injected packet rate average = 0.01025
	minimum = 0.006 (at node 7)
	maximum = 0.02 (at node 4)
Accepted packet rate average = 0.00975
	minimum = 0.006 (at node 7)
	maximum = 0.018 (at node 1)
Injected flit rate average = 0.01025
	minimum = 0.006 (at node 7)
	maximum = 0.02 (at node 4)
Accepted flit rate average= 0.00975
	minimum = 0.006 (at node 7)
	maximum = 0.018 (at node 1)
Injected packet length average = 1
Accepted packet length average = 1
Total in-flight flits = 4 (0 measured)
latency change    = 1
throughput change = 1
Class 0:
Packet latency average = 19.8765
	minimum = 7
	maximum = 37
Network latency average = 19.8765
	minimum = 7
	maximum = 37
Slowest packet = 2583
Flit latency average = 19.8765
	minimum = 7
	maximum = 37
Slowest flit = 2583
Fragmentation average = 0
	minimum = 0
	maximum = 0
Injected packet rate average = 0.01025
	minimum = 0.005 (at node 7)
	maximum = 0.014 (at node 11)
Accepted packet rate average = 0.010125
	minimum = 0.005 (at node 13)
	maximum = 0.014 (at node 14)
Injected flit rate average = 0.01025
	minimum = 0.005 (at node 7)
	maximum = 0.014 (at node 11)
Accepted flit rate average= 0.010125
	minimum = 0.005 (at node 13)
	maximum = 0.014 (at node 14)
Injected packet length average = 1
Accepted packet length average = 1
Total in-flight flits = 2 (0 measured)
latency change    = 0.0673196
throughput change = 0.037037
Class 0:
Packet latency average = 18.6393
	minimum = 7
	maximum = 37
Network latency average = 18.6393
	minimum = 7
	maximum = 37
Slowest packet = 2738
Flit latency average = 18.6393
	minimum = 7
	maximum = 37
Slowest flit = 2738
Fragmentation average = 0
	minimum = 0
	maximum = 0
Injected packet rate average = 0.008125
	minimum = 0.002 (at node 2)
	maximum = 0.016 (at node 11)
Accepted packet rate average = 0.007625
	minimum = 0.002 (at node 6)
	maximum = 0.014 (at node 14)
Injected flit rate average = 0.008125
	minimum = 0.002 (at node 2)
	maximum = 0.016 (at node 11)
Accepted flit rate average= 0.007625
	minimum = 0.002 (at node 6)
	maximum = 0.014 (at node 14)
Injected packet length average = 1
Accepted packet length average = 1
Total in-flight flits = 6 (0 measured)
latency change    = 0.0663757
throughput change = 0.327869
Warmed up ...Time used is 1500 cycles
Class 0:
Packet latency average = 20.5068
	minimum = 7
	maximum = 37
Network latency average = 20.5068
	minimum = 7
	maximum = 37
Slowest packet = 2815
Flit latency average = 20.8734
	minimum = 7
	maximum = 37
Slowest flit = 2799
Fragmentation average = 0
	minimum = 0
	maximum = 0
Injected packet rate average = 0.0095
	minimum = 0 (at node 10)
	maximum = 0.02 (at node 13)
Accepted packet rate average = 0.009875
	minimum = 0 (at node 10)
	maximum = 0.018 (at node 7)
Injected flit rate average = 0.0095
	minimum = 0 (at node 10)
	maximum = 0.02 (at node 13)
Accepted flit rate average= 0.009875
	minimum = 0 (at node 10)
	maximum = 0.018 (at node 7)
Injected packet length average = 1
Accepted packet length average = 1
Total in-flight flits = 3 (3 measured)
latency change    = 0.0910674
throughput change = 0.227848
Class 0:
Packet latency average = 20.1553
	minimum = 7
	maximum = 37
Network latency average = 20.1553
	minimum = 7
	maximum = 37
Slowest packet = 2815
Flit latency average = 20.3413
	minimum = 7
	maximum = 37
Slowest flit = 2799
Fragmentation average = 0
	minimum = 0
	maximum = 0
Injected packet rate average = 0.0103125
	minimum = 0.004 (at node 9)
	maximum = 0.015 (at node 8)
Accepted packet rate average = 0.0104375
	minimum = 0.005 (at node 6)
	maximum = 0.015 (at node 2)
Injected flit rate average = 0.0103125
	minimum = 0.004 (at node 9)
	maximum = 0.015 (at node 8)
Accepted flit rate average= 0.0104375
	minimum = 0.005 (at node 6)
	maximum = 0.015 (at node 2)
Injected packet length average = 1
Accepted packet length average = 1
Total in-flight flits = 4 (4 measured)
latency change    = 0.0174431
throughput change = 0.0538922
Class 0:
Packet latency average = 19.8578
	minimum = 7
	maximum = 42
Network latency average = 19.8578
	minimum = 7
	maximum = 42
Slowest packet = 2987
Flit latency average = 20
	minimum = 7
	maximum = 42
Slowest flit = 2987
Fragmentation average = 0
	minimum = 0
	maximum = 0
Injected packet rate average = 0.00945833
	minimum = 0.00266667 (at node 9)
	maximum = 0.0146667 (at node 11)
Accepted packet rate average = 0.009625
	minimum = 0.00333333 (at node 6)
	maximum = 0.0153333 (at node 14)
Injected flit rate average = 0.00945833
	minimum = 0.00266667 (at node 9)
	maximum = 0.0146667 (at node 11)
Accepted flit rate average= 0.009625
	minimum = 0.00333333 (at node 6)
	maximum = 0.0153333 (at node 14)
Injected packet length average = 1
Accepted packet length average = 1
Total in-flight flits = 2 (2 measured)
latency change    = 0.0149816
throughput change = 0.0844156
Class 0:
Packet latency average = 20.0365
	minimum = 7
	maximum = 42
Network latency average = 20.0365
	minimum = 7
	maximum = 42
Slowest packet = 2987
Flit latency average = 20.1401
	minimum = 7
	maximum = 42
Slowest flit = 2987
Fragmentation average = 0
	minimum = 0
	maximum = 0
Injected packet rate average = 0.00946875
	minimum = 0.0045 (at node 9)
	maximum = 0.013 (at node 8)
Accepted packet rate average = 0.00959375
	minimum = 0.005 (at node 6)
	maximum = 0.0135 (at node 14)
Injected flit rate average = 0.00946875
	minimum = 0.0045 (at node 9)
	maximum = 0.013 (at node 8)
Accepted flit rate average= 0.00959375
	minimum = 0.005 (at node 6)
	maximum = 0.0135 (at node 14)
Injected packet length average = 1
Accepted packet length average = 1
Total in-flight flits = 2 (2 measured)
latency change    = 0.00892205
throughput change = 0.00325733
Class 0:
Packet latency average = 20.1946
	minimum = 7
	maximum = 42
Network latency average = 20.1946
	minimum = 7
	maximum = 42
Slowest packet = 2987
Flit latency average = 20.2766
	minimum = 7
	maximum = 42
Slowest flit = 2987
Fragmentation average = 0
	minimum = 0
	maximum = 0
Injected packet rate average = 0.009275
	minimum = 0.0048 (at node 9)
	maximum = 0.0132 (at node 11)
Accepted packet rate average = 0.0094
	minimum = 0.0052 (at node 6)
	maximum = 0.0136 (at node 14)
Injected flit rate average = 0.009275
	minimum = 0.0048 (at node 9)
	maximum = 0.0132 (at node 11)
Accepted flit rate average= 0.0094
	minimum = 0.0052 (at node 6)
	maximum = 0.0136 (at node 14)
Injected packet length average = 1
Accepted packet length average = 1
Total in-flight flits = 1 (1 measured)
latency change    = 0.00782634
throughput change = 0.0206117
Class 0:
Packet latency average = 20.1308
	minimum = 7
	maximum = 42
Network latency average = 20.1308
	minimum = 7
	maximum = 42
Slowest packet = 2987
Flit latency average = 20.1991
	minimum = 7
	maximum = 42
Slowest flit = 2987
Fragmentation average = 0
	minimum = 0
	maximum = 0
Injected packet rate average = 0.0094375
	minimum = 0.00633333 (at node 2)
	maximum = 0.0116667 (at node 7)
Accepted packet rate average = 0.00952083
	minimum = 0.00633333 (at node 8)
	maximum = 0.012 (at node 14)
Injected flit rate average = 0.0094375
	minimum = 0.00633333 (at node 2)
	maximum = 0.0116667 (at node 7)
Accepted flit rate average= 0.00952083
	minimum = 0.00633333 (at node 8)
	maximum = 0.012 (at node 14)
Injected packet length average = 1
Accepted packet length average = 1
Total in-flight flits = 2 (2 measured)
latency change    = 0.00316799
throughput change = 0.0126915
Draining all recorded packets ...
Draining remaining packets ...
Time taken is 4543 cycles
Class 0:
Packet latency average = 20.4933
	minimum = 7
	maximum = 37
Network latency average = 20.4933
	minimum = 7
	maximum = 37
Slowest packet = 3258
Flit latency average = 20.4933
	minimum = 7
	maximum = 37
Slowest flit = 3258
Fragmentation average = 0
	minimum = 0
	maximum = 0
Injected packet rate average = 0.009625
	minimum = 0.002 (at node 5)
	maximum = 0.016 (at node 7)
Accepted packet rate average = 0.009375
	minimum = 0.002 (at node 5)
	maximum = 0.016 (at node 2)
Injected flit rate average = 0.009625
	minimum = 0.002 (at node 5)
	maximum = 0.016 (at node 7)
Accepted flit rate average= 0.009375
	minimum = 0.002 (at node 5)
	maximum = 0.016 (at node 2)
Injected packet length average = 1
Accepted packet length average = 1
Total in-flight flits = 2 (0 measured)
latency change    = 1
throughput change = 1
Class 0:
Packet latency average = 20.8313
	minimum = 7
	maximum = 39
Network latency average = 20.8313
	minimum = 7
	maximum = 39
Slowest packet = 3355
Flit latency average = 20.8313
	minimum = 7
	maximum = 39
Slowest flit = 3355
Fragmentation average = 0
	minimum = 0
	maximum = 0
Injected packet rate average = 0.01025
	minimum = 0.004 (at node 5)
	maximum = 0.018 (at node 12)
Accepted packet rate average = 0.01
	minimum = 0.004 (at node 5)
	maximum = 0.018 (at node 3)
Injected flit rate average = 0.01025
	minimum = 0.004 (at node 5)
	maximum = 0.018 (at node 12)
Accepted flit rate average= 0.01
	minimum = 0.004 (at node 5)
	maximum = 0.018 (at node 3)
Injected packet length average = 1
Accepted packet length average = 1
Total in-flight flits = 4 (0 measured)
latency change    = 0.0162216
throughput change = 0.0625
Class 0:
Packet latency average = 17.5435
	minimum = 7
	maximum = 37
Network latency average = 17.5435
	minimum = 7
	maximum = 37
Slowest packet = 3418
Flit latency average = 17.5435
	minimum = 7
	maximum = 37
Slowest flit = 3418
Fragmentation average = 0
	minimum = 0
	maximum = 0
Injected packet rate average = 0.01125
	minimum = 0.002 (at node 1)
	maximum = 0.02 (at node 0)
Accepted packet rate average = 0.0115
	minimum = 0.002 (at node 2)
	maximum = 0.02 (at node 0)
Injected flit rate average = 0.01125
	minimum = 0.002 (at node 1)
	maximum = 0.02 (at node 0)
Accepted flit rate average= 0.0115
	minimum = 0.002 (at node 2)
	maximum = 0.02 (at node 0)
Injected packet length average = 1
Accepted packet length average = 1
Total in-flight flits = 2 (0 measured)
latency change    = 0.187407
throughput change = 0.130435
Warmed up ...Time used is 1500 cycles
Class 0:
Packet latency average = 18.25
	minimum = 7
	maximum = 37
Network latency average = 18.25
	minimum = 7
	maximum = 37
Slowest packet = 3517
Flit latency average = 18.4634
	minimum = 7
	maximum = 37
Slowest flit = 3510
Fragmentation average = 0
	minimum = 0
	maximum = 0
Injected packet rate average = 0.01025
	minimum = 0.004 (at node 12)
	maximum = 0.022 (at node 14)
Accepted packet rate average = 0.01025
	minimum = 0.004 (at node 3)
	maximum = 0.022 (at node 11)
Injected flit rate average = 0.01025
	minimum = 0.004 (at node 12)
	maximum = 0.022 (at node 14)
Accepted flit rate average= 0.01025
	minimum = 0.004 (at node 3)
	maximum = 0.022 (at node 11)
Injected packet length average = 1
Accepted packet length average = 1
Total in-flight flits = 2 (2 measured)
latency change    = 0.0387135
throughput change = 0.121951
Class 0:
Packet latency average = 17.7971
	minimum = 7
	maximum = 37
Network latency average = 17.7971
	minimum = 7
	maximum = 37
Slowest packet = 3517
Flit latency average = 17.9286
	minimum = 7
	maximum = 37
Slowest flit = 3510
Fragmentation average = 0
	minimum = 0
	maximum = 0
Injected packet rate average = 0.00875
	minimum = 0.005 (at node 2)
	maximum = 0.012 (at node 5)
Accepted packet rate average = 0.00875
	minimum = 0.005 (at node 2)
	maximum = 0.012 (at node 5)
Injected flit rate average = 0.00875
	minimum = 0.005 (at node 2)
	maximum = 0.012 (at node 5)
Accepted flit rate average= 0.00875
	minimum = 0.005 (at node 2)
	maximum = 0.012 (at node 5)
Injected packet length average = 1
Accepted packet length average = 1
Total in-flight flits = 2 (2 measured)
latency change    = 0.0254479
throughput change = 0.171429
Class 0:
Packet latency average = 18.0817
	minimum = 7
	maximum = 42
Network latency average = 18.0817
	minimum = 7
	maximum = 42
Slowest packet = 3656
Flit latency average = 18.1667
	minimum = 7
	maximum = 42
Slowest flit = 3656
Fragmentation average = 0
	minimum = 0
	maximum = 0
Injected packet rate average = 0.00879167
	minimum = 0.00466667 (at node 2)
	maximum = 0.016 (at node 11)
Accepted packet rate average = 0.00875
	minimum = 0.00466667 (at node 8)
	maximum = 0.0146667 (at node 14)
Injected flit rate average = 0.00879167
	minimum = 0.00466667 (at node 2)
	maximum = 0.016 (at node 11)
Accepted flit rate average= 0.00875
	minimum = 0.00466667 (at node 8)
	maximum = 0.0146667 (at node 14)
Injected packet length average = 1
Accepted packet length average = 1
Total in-flight flits = 3 (3 measured)
latency change    = 0.0157413
throughput change = 0
Class 0:
Packet latency average = 18.4057
	minimum = 7
	maximum = 42
Network latency average = 18.4057
	minimum = 7
	maximum = 42
Slowest packet = 3656
Flit latency average = 18.4664
	minimum = 7
	maximum = 42
Slowest flit = 3656
Fragmentation average = 0
	minimum = 0
	maximum = 0
Injected packet rate average = 0.00896875
	minimum = 0.0055 (at node 2)
	maximum = 0.0145 (at node 11)
Accepted packet rate average = 0.00884375
	minimum = 0.005 (at node 8)
	maximum = 0.0145 (at node 14)
Injected flit rate average = 0.00896875
	minimum = 0.0055 (at node 2)
	maximum = 0.0145 (at node 11)
Accepted flit rate average= 0.00884375
	minimum = 0.005 (at node 8)
	maximum = 0.0145 (at node 14)
Injected packet length average = 1
Accepted packet length average = 1
Total in-flight flits = 6 (6 measured)
latency change    = 0.0176012
throughput change = 0.0106007
Class 0:
Packet latency average = 18.6436
	minimum = 7
	maximum = 42
Network latency average = 18.6436
	minimum = 7
	maximum = 42
Slowest packet = 3656
Flit latency average = 18.6896
	minimum = 7
	maximum = 42
Slowest flit = 3656
Fragmentation average = 0
	minimum = 0
	maximum = 0
Injected packet rate average = 0.00905
	minimum = 0.006 (at node 2)
	maximum = 0.0144 (at node 11)
Accepted packet rate average = 0.0091
	minimum = 0.006 (at node 8)
	maximum = 0.0144 (at node 14)
Injected flit rate average = 0.00905
	minimum = 0.006 (at node 2)
	maximum = 0.0144 (at node 11)
Accepted flit rate average= 0.0091
	minimum = 0.006 (at node 8)
	maximum = 0.0144 (at node 14)
Injected packet length average = 1
Accepted packet length average = 1
Total in-flight flits = 0 (0 measured)
latency change    = 0.0127632
throughput change = 0.0281593
Draining all recorded packets ...
Draining remaining packets ...
Time taken is 4022 cycles
Class 0:
Packet latency average = 18.4085
	minimum = 7
	maximum = 37
Network latency average = 18.4085
	minimum = 7
	maximum = 37
Slowest packet = 3882
Flit latency average = 18.4085
	minimum = 7
	maximum = 37
Slowest flit = 3882
Fragmentation average = 0
	minimum = 0
	maximum = 0
Injected packet rate average = 0.009125
	minimum = 0 (at node 10)
	maximum = 0.016 (at node 13)
Accepted packet rate average = 0.008875
	minimum = 0 (at node 10)
	maximum = 0.016 (at node 7)
Injected flit rate average = 0.009125
	minimum = 0 (at node 10)
	maximum = 0.016 (at node 13)
Accepted flit rate average= 0.008875
	minimum = 0 (at node 10)
	maximum = 0.016 (at node 7)
Injected packet length average = 1
Accepted packet length average = 1
Total in-flight flits = 2 (0 measured)
latency change    = 1
throughput change = 1
Class 0:
Packet latency average = 19.5644
	minimum = 7
	maximum = 37
Network latency average = 19.5644
	minimum = 7
	maximum = 37
Slowest packet = 3882
Flit latency average = 19.5644
	minimum = 7
	maximum = 37
Slowest flit = 3882
Fragmentation average = 0
	minimum = 0
	maximum = 0
Injected packet rate average = 0.01075
	minimum = 0.004 (at node 12)
	maximum = 0.017 (at node 11)
Accepted packet rate average = 0.0101875
	minimum = 0.004 (at node 3)
	maximum = 0.017 (at node 14)
Injected flit rate average = 0.01075
	minimum = 0.004 (at node 12)
	maximum = 0.017 (at node 11)
Accepted flit rate average= 0.0101875
	minimum = 0.004 (at node 3)
	maximum = 0.017 (at node 14)
Injected packet length average = 1
Accepted packet length average = 1
Total in-flight flits = 9 (0 measured)
latency change    = 0.0590851
throughput change = 0.128834
Class 0:
Packet latency average = 19.5714
	minimum = 7
	maximum = 44
Network latency average = 19.5714
	minimum = 7
	maximum = 44
Slowest packet = 4039
Flit latency average = 19.5714
	minimum = 7
	maximum = 44
Slowest flit = 4039
Fragmentation average = 0
	minimum = 0
	maximum = 0
Injected packet rate average = 0.010625
	minimum = 0.006 (at node 14)
	maximum = 0.02 (at node 0)
Accepted packet rate average = 0.011375
	minimum = 0.006 (at node 1)
	maximum = 0.022 (at node 2)
Injected flit rate average = 0.010625
	minimum = 0.006 (at node 14)
	maximum = 0.02 (at node 0)
Accepted flit rate average= 0.011375
	minimum = 0.006 (at node 1)
	maximum = 0.022 (at node 2)
Injected packet length average = 1
Accepted packet length average = 1
Total in-flight flits = 3 (0 measured)
latency change    = 0.000358246
throughput change = 0.104396
Warmed up ...Time used is 1500 cycles
Class 0:
Packet latency average = 20.0328
	minimum = 7
	maximum = 37
Network latency average = 20.0328
	minimum = 7
	maximum = 37
Slowest packet = 4143
Flit latency average = 20.2031
	minimum = 7
	maximum = 37
Slowest flit = 4143
Fragmentation average = 0
	minimum = 0
	maximum = 0
Injected packet rate average = 0.008
	minimum = 0.004 (at node 6)
	maximum = 0.012 (at node 3)
Accepted packet rate average = 0.008
	minimum = 0.004 (at node 6)
	maximum = 0.012 (at node 3)
Injected flit rate average = 0.008
	minimum = 0.004 (at node 6)
	maximum = 0.012 (at node 3)
Accepted flit rate average= 0.008
	minimum = 0.004 (at node 6)
	maximum = 0.012 (at node 3)
Injected packet length average = 1
Accepted packet length average = 1
Total in-flight flits = 3 (3 measured)
latency change    = 0.0230302
throughput change = 0.421875
Class 0:
Packet latency average = 19.7603
	minimum = 7
	maximum = 37
Network latency average = 19.7603
	minimum = 7
	maximum = 37
Slowest packet = 4143
Flit latency average = 19.8389
	minimum = 7
	maximum = 37
Slowest flit = 4143
Fragmentation average = 0
	minimum = 0
	maximum = 0
Injected packet rate average = 0.0093125
	minimum = 0.005 (at node 7)
	maximum = 0.013 (at node 2)
Accepted packet rate average = 0.0093125
	minimum = 0.004 (at node 13)
	maximum = 0.014 (at node 2)
Injected flit rate average = 0.0093125
	minimum = 0.005 (at node 7)
	maximum = 0.013 (at node 2)
Accepted flit rate average= 0.0093125
	minimum = 0.004 (at node 13)
	maximum = 0.014 (at node 2)
Injected packet length average = 1
Accepted packet length average = 1
Total in-flight flits = 3 (3 measured)
latency change    = 0.0137909
throughput change = 0.14094
Class 0:
Packet latency average = 19.8018
	minimum = 7
	maximum = 37
Network latency average = 19.8018
	minimum = 7
	maximum = 37
Slowest packet = 4143
Flit latency average = 19.8522
	minimum = 7
	maximum = 37
Slowest flit = 4143
Fragmentation average = 0
	minimum = 0
	maximum = 0
Injected packet rate average = 0.00970833
	minimum = 0.006 (at node 7)
	maximum = 0.0146667 (at node 8)
Accepted packet rate average = 0.00958333
	minimum = 0.00533333 (at node 13)
	maximum = 0.0153333 (at node 2)
Injected flit rate average = 0.00970833
	minimum = 0.006 (at node 7)
	maximum = 0.0146667 (at node 8)
Accepted flit rate average= 0.00958333
	minimum = 0.00533333 (at node 13)
	maximum = 0.0153333 (at node 2)
Injected packet length average = 1
Accepted packet length average = 1
Total in-flight flits = 6 (6 measured)
latency change    = 0.00209517
throughput change = 0.0282609
Class 0:
Packet latency average = 19.8355
	minimum = 7
	maximum = 37
Network latency average = 19.8355
	minimum = 7
	maximum = 37
Slowest packet = 4143
Flit latency average = 19.873
	minimum = 7
	maximum = 37
Slowest flit = 4143
Fragmentation average = 0
	minimum = 0
	maximum = 0
Injected packet rate average = 0.00965625
	minimum = 0.006 (at node 7)
	maximum = 0.013 (at node 8)
Accepted packet rate average = 0.00959375
	minimum = 0.006 (at node 13)
	maximum = 0.013 (at node 2)
Injected flit rate average = 0.00965625
	minimum = 0.006 (at node 7)
	maximum = 0.013 (at node 8)
Accepted flit rate average= 0.00959375
	minimum = 0.006 (at node 13)
	maximum = 0.013 (at node 2)
Injected packet length average = 1
Accepted packet length average = 1
Total in-flight flits = 5 (5 measured)
latency change    = 0.00170221
throughput change = 0.00108578
Class 0:
Packet latency average = 19.706
	minimum = 7
	maximum = 37
Network latency average = 19.706
	minimum = 7
	maximum = 37
Slowest packet = 4143
Flit latency average = 19.7357
	minimum = 7
	maximum = 37
Slowest flit = 4143
Fragmentation average = 0
	minimum = 0
	maximum = 0
Injected packet rate average = 0.00995
	minimum = 0.0064 (at node 7)
	maximum = 0.0152 (at node 8)
Accepted packet rate average = 0.010025
	minimum = 0.0064 (at node 13)
	maximum = 0.0156 (at node 2)
Injected flit rate average = 0.00995
	minimum = 0.0064 (at node 7)
	maximum = 0.0152 (at node 8)
Accepted flit rate average= 0.010025
	minimum = 0.0064 (at node 13)
	maximum = 0.0156 (at node 2)
Injected packet length average = 1
Accepted packet length average = 1
Total in-flight flits = 0 (0 measured)
latency change    = 0.0065714
throughput change = 0.0430175
Draining all recorded packets ...
Draining remaining packets ...
Time taken is 4001 cycles
Class 0:
Packet latency average = 18.3649
	minimum = 7
	maximum = 37
Network latency average = 18.3649
	minimum = 7
	maximum = 37
Slowest packet = 4537
Flit latency average = 18.3649
	minimum = 7
	maximum = 37
Slowest flit = 4537
Fragmentation average = 0
	minimum = 0
	maximum = 0
Injected packet rate average = 0.00975
	minimum = 0.004 (at node 2)
	maximum = 0.02 (at node 5)
Accepted packet rate average = 0.00925
	minimum = 0.004 (at node 6)
	maximum = 0.02 (at node 5)
Injected flit rate average = 0.00975
	minimum = 0.004 (at node 2)
	maximum = 0.02 (at node 5)
Accepted flit rate average= 0.00925
	minimum = 0.004 (at node 6)
	maximum = 0.02 (at node 5)
Injected packet length average = 1
Accepted packet length average = 1
Total in-flight flits = 4 (0 measured)
latency change    = 1
throughput change = 1
Class 0:
Packet latency average = 18.7725
	minimum = 7
	maximum = 38
Network latency average = 18.7725
	minimum = 7
	maximum = 38
Slowest packet = 4678
Flit latency average = 18.7725
	minimum = 7
	maximum = 38
Slowest flit = 4678
Fragmentation average = 0
	minimum = 0
	maximum = 0
Injected packet rate average = 0.010875
	minimum = 0.006 (at node 14)
	maximum = 0.02 (at node 5)
Accepted packet rate average = 0.0104375
	minimum = 0.005 (at node 11)
	maximum = 0.02 (at node 5)
Injected flit rate average = 0.010875
	minimum = 0.006 (at node 14)
	maximum = 0.02 (at node 5)
Accepted flit rate average= 0.0104375
	minimum = 0.005 (at node 11)
	maximum = 0.02 (at node 5)
Injected packet length average = 1
Accepted packet length average = 1
Total in-flight flits = 7 (0 measured)
latency change    = 0.0217121
throughput change = 0.113772
Class 0:
Packet latency average = 22.0725
	minimum = 7
	maximum = 42
Network latency average = 22.0725
	minimum = 7
	maximum = 42
Slowest packet = 4698
Flit latency average = 22.0725
	minimum = 7
	maximum = 42
Slowest flit = 4698
Fragmentation average = 0
	minimum = 0
	maximum = 0
Injected packet rate average = 0.008
	minimum = 0.002 (at node 0)
	maximum = 0.014 (at node 12)
Accepted packet rate average = 0.008625
	minimum = 0.002 (at node 0)
	maximum = 0.016 (at node 3)
Injected flit rate average = 0.008
	minimum = 0.002 (at node 0)
	maximum = 0.014 (at node 12)
Accepted flit rate average= 0.008625
	minimum = 0.002 (at node 0)
	maximum = 0.016 (at node 3)
Injected packet length average = 1
Accepted packet length average = 1
Total in-flight flits = 2 (0 measured)
latency change    = 0.149508
throughput change = 0.210145
Warmed up ...Time used is 1500 cycles
Class 0:
Packet latency average = 16.0417
	minimum = 7
	maximum = 37
Network latency average = 16.0417
	minimum = 7
	maximum = 37
Slowest packet = 4769
Flit latency average = 16.3378
	minimum = 7
	maximum = 37
Slowest flit = 4769
Fragmentation average = 0
	minimum = 0
	maximum = 0
Injected packet rate average = 0.009125
	minimum = 0.002 (at node 3)
	maximum = 0.018 (at node 15)
Accepted packet rate average = 0.00925
	minimum = 0.002 (at node 3)
	maximum = 0.018 (at node 15)
Injected flit rate average = 0.009125
	minimum = 0.002 (at node 3)
	maximum = 0.018 (at node 15)
Accepted flit rate average= 0.00925
	minimum = 0.002 (at node 3)
	maximum = 0.018 (at node 15)
Injected packet length average = 1
Accepted packet length average = 1
Total in-flight flits = 1 (1 measured)
latency change    = 0.375946
throughput change = 0.0675676
Class 0:
Packet latency average = 17.1925
	minimum = 7
	maximum = 37
Network latency average = 17.1925
	minimum = 7
	maximum = 37
Slowest packet = 4769
Flit latency average = 17.3129
	minimum = 7
	maximum = 37
Slowest flit = 4769
Fragmentation average = 0
	minimum = 0
	maximum = 0
Injected packet rate average = 0.010125
	minimum = 0.004 (at node 9)
	maximum = 0.019 (at node 0)
Accepted packet rate average = 0.0101875
	minimum = 0.004 (at node 6)
	maximum = 0.019 (at node 0)
Injected flit rate average = 0.010125
	minimum = 0.004 (at node 9)
	maximum = 0.019 (at node 0)
Accepted flit rate average= 0.0101875
	minimum = 0.004 (at node 6)
	maximum = 0.019 (at node 0)
Injected packet length average = 1
Accepted packet length average = 1
Total in-flight flits = 1 (1 measured)
latency change    = 0.0669406
throughput change = 0.0920245
Class 0:
Packet latency average = 17.979
	minimum = 7
	maximum = 37
Network latency average = 17.979
	minimum = 7
	maximum = 37
Slowest packet = 4769
Flit latency average = 18.0542
	minimum = 7
	maximum = 37
Slowest flit = 4769
Fragmentation average = 0
	minimum = 0
	maximum = 0
Injected packet rate average = 0.00995833
	minimum = 0.006 (at node 3)
	maximum = 0.014 (at node 10)
Accepted packet rate average = 0.01
	minimum = 0.006 (at node 9)
	maximum = 0.014 (at node 10)
Injected flit rate average = 0.00995833
	minimum = 0.006 (at node 3)
	maximum = 0.014 (at node 10)
Accepted flit rate average= 0.01
	minimum = 0.006 (at node 9)
	maximum = 0.014 (at node 10)
Injected packet length average = 1
Accepted packet length average = 1
Total in-flight flits = 1 (1 measured)
latency change    = 0.0437424
throughput change = 0.01875
Class 0:
Packet latency average = 18.3957
	minimum = 7
	maximum = 37
Network latency average = 18.3957
	minimum = 7
	maximum = 37
Slowest packet = 4769
Flit latency average = 18.4482
	minimum = 7
	maximum = 37
Slowest flit = 4769
Fragmentation average = 0
	minimum = 0
	maximum = 0
Injected packet rate average = 0.01025
	minimum = 0.0075 (at node 6)
	maximum = 0.015 (at node 15)
Accepted packet rate average = 0.01025
	minimum = 0.0075 (at node 6)
	maximum = 0.015 (at node 15)
Injected flit rate average = 0.01025
	minimum = 0.0075 (at node 6)
	maximum = 0.015 (at node 15)
Accepted flit rate average= 0.01025
	minimum = 0.0075 (at node 6)
	maximum = 0.015 (at node 15)
Injected packet length average = 1
Accepted packet length average = 1
Total in-flight flits = 2 (2 measured)
latency change    = 0.0226528
throughput change = 0.0243902
Class 0:
Packet latency average = 18.6125
	minimum = 7
	maximum = 37
Network latency average = 18.6125
	minimum = 7
	maximum = 37
Slowest packet = 4769
Flit latency average = 18.6542
	minimum = 7
	maximum = 37
Slowest flit = 4769
Fragmentation average = 0
	minimum = 0
	maximum = 0
Injected packet rate average = 0.0101
	minimum = 0.0076 (at node 7)
	maximum = 0.0136 (at node 15)
Accepted packet rate average = 0.01005
	minimum = 0.0076 (at node 13)
	maximum = 0.0136 (at node 15)
Injected flit rate average = 0.0101
	minimum = 0.0076 (at node 7)
	maximum = 0.0136 (at node 15)
Accepted flit rate average= 0.01005
	minimum = 0.0076 (at node 13)
	maximum = 0.0136 (at node 15)
Injected packet length average = 1
Accepted packet length average = 1
Total in-flight flits = 4 (4 measured)
latency change    = 0.0116478
throughput change = 0.0199005
Draining all recorded packets ...
Draining remaining packets ...
Time taken is 4041 cycles
Class 0:
Packet latency average = 21.3235
	minimum = 7
	maximum = 37
Network latency average = 21.3235
	minimum = 7
	maximum = 37
Slowest packet = 5182
Flit latency average = 21.3235
	minimum = 7
	maximum = 37
Slowest flit = 5182
Fragmentation average = 0
	minimum = 0
	maximum = 0
Injected packet rate average = 0.00875
	minimum = 0.004 (at node 6)
	maximum = 0.016 (at node 3)
Accepted packet rate average = 0.0085
	minimum = 0.004 (at node 6)
	maximum = 0.016 (at node 12)
Injected flit rate average = 0.00875
	minimum = 0.004 (at node 6)
	maximum = 0.016 (at node 3)
Accepted flit rate average= 0.0085
	minimum = 0.004 (at node 6)
	maximum = 0.016 (at node 12)
Injected packet length average = 1
Accepted packet length average = 1
Total in-flight flits = 2 (0 measured)
latency change    = 1
throughput change = 1
Class 0:
Packet latency average = 21.1299
	minimum = 7
	maximum = 37
Network latency average = 21.1299
	minimum = 7
	maximum = 37
Slowest packet = 5182
Flit latency average = 21.1299
	minimum = 7
	maximum = 37
Slowest flit = 5182
Fragmentation average = 0
	minimum = 0
	maximum = 0
Injected packet rate average = 0.009625
	minimum = 0.005 (at node 4)
	maximum = 0.017 (at node 12)
Accepted packet rate average = 0.009625
	minimum = 0.005 (at node 1)
	maximum = 0.017 (at node 3)
Injected flit rate average = 0.009625
	minimum = 0.005 (at node 4)
	maximum = 0.017 (at node 12)
Accepted flit rate average= 0.009625
	minimum = 0.005 (at node 1)
	maximum = 0.017 (at node 3)
Injected packet length average = 1
Accepted packet length average = 1
Total in-flight flits = 0 (0 measured)
latency change    = 0.00916519
throughput change = 0.116883
Class 0:
Packet latency average = 21.75
	minimum = 7
	maximum = 37
Network latency average = 21.75
	minimum = 7
	maximum = 37
Slowest packet = 5338
Flit latency average = 21.75
	minimum = 7
	maximum = 37
Slowest flit = 5338
Fragmentation average = 0
	minimum = 0
	maximum = 0
Injected packet rate average = 0.009375
	minimum = 0.004 (at node 5)
	maximum = 0.018 (at node 8)
Accepted packet rate average = 0.009
	minimum = 0.004 (at node 5)
	maximum = 0.018 (at node 2)
Injected flit rate average = 0.009375
	minimum = 0.004 (at node 5)
	maximum = 0.018 (at node 8)
Accepted flit rate average= 0.009
	minimum = 0.004 (at node 5)
	maximum = 0.018 (at node 2)
Injected packet length average = 1
Accepted packet length average = 1
Total in-flight flits = 3 (0 measured)
latency change    = 0.0285117
throughput change = 0.0694444
Warmed up ...Time used is 1500 cycles
Class 0:
Packet latency average = 20.0469
	minimum = 7
	maximum = 37
Network latency average = 20.0469
	minimum = 7
	maximum = 37
Slowest packet = 5413
Flit latency average = 20.5075
	minimum = 7
	maximum = 37
Slowest flit = 5405
Fragmentation average = 0
	minimum = 0
	maximum = 0
Injected packet rate average = 0.008125
	minimum = 0.004 (at node 2)
	maximum = 0.014 (at node 9)
Accepted packet rate average = 0.008375
	minimum = 0.004 (at node 8)
	maximum = 0.014 (at node 6)
Injected flit rate average = 0.008125
	minimum = 0.004 (at node 2)
	maximum = 0.014 (at node 9)
Accepted flit rate average= 0.008375
	minimum = 0.004 (at node 8)
	maximum = 0.014 (at node 6)
Injected packet length average = 1
Accepted packet length average = 1
Total in-flight flits = 1 (1 measured)
latency change    = 0.0849571
throughput change = 0.0746269
Class 0:
Packet latency average = 21.1884
	minimum = 7
	maximum = 37
Network latency average = 21.1884
	minimum = 7
	maximum = 37
Slowest packet = 5413
Flit latency average = 21.383
	minimum = 7
	maximum = 37
Slowest flit = 5405
Fragmentation average = 0
	minimum = 0
	maximum = 0
Injected packet rate average = 0.0086875
	minimum = 0.004 (at node 11)
	maximum = 0.015 (at node 12)
Accepted packet rate average = 0.0088125
	minimum = 0.004 (at node 14)
	maximum = 0.015 (at node 7)
Injected flit rate average = 0.0086875
	minimum = 0.004 (at node 11)
	maximum = 0.015 (at node 12)
Accepted flit rate average= 0.0088125
	minimum = 0.004 (at node 14)
	maximum = 0.015 (at node 7)
Injected packet length average = 1
Accepted packet length average = 1
Total in-flight flits = 1 (1 measured)
latency change    = 0.0538753
throughput change = 0.0496454
Class 0:
Packet latency average = 20.2488
	minimum = 7
	maximum = 37
Network latency average = 20.2488
	minimum = 7
	maximum = 37
Slowest packet = 5413
Flit latency average = 20.3915
	minimum = 7
	maximum = 37
Slowest flit = 5405
Fragmentation average = 0
	minimum = 0
	maximum = 0
Injected packet rate average = 0.00883333
	minimum = 0.004 (at node 0)
	maximum = 0.0126667 (at node 12)
Accepted packet rate average = 0.00883333
	minimum = 0.004 (at node 0)
	maximum = 0.0133333 (at node 7)
Injected flit rate average = 0.00883333
	minimum = 0.004 (at node 0)
	maximum = 0.0126667 (at node 12)
Accepted flit rate average= 0.00883333
	minimum = 0.004 (at node 0)
	maximum = 0.0133333 (at node 7)
Injected packet length average = 1
Accepted packet length average = 1
Total in-flight flits = 3 (3 measured)
latency change    = 0.0464028
throughput change = 0.00235849
Class 0:
Packet latency average = 19.9863
	minimum = 7
	maximum = 37
Network latency average = 19.9863
	minimum = 7
	maximum = 37
Slowest packet = 5413
Flit latency average = 20.0918
	minimum = 7
	maximum = 37
Slowest flit = 5405
Fragmentation average = 0
	minimum = 0
	maximum = 0
Injected packet rate average = 0.00921875
	minimum = 0.0055 (at node 11)
	maximum = 0.014 (at node 6)
Accepted packet rate average = 0.0091875
	minimum = 0.0055 (at node 0)
	maximum = 0.0135 (at node 9)
Injected flit rate average = 0.00921875
	minimum = 0.0055 (at node 11)
	maximum = 0.014 (at node 6)
Accepted flit rate average= 0.0091875
	minimum = 0.0055 (at node 0)
	maximum = 0.0135 (at node 9)
Injected packet length average = 1
Accepted packet length average = 1
Total in-flight flits = 4 (4 measured)
latency change    = 0.0131365
throughput change = 0.0385488
Class 0:
Packet latency average = 19.9889
	minimum = 7
	maximum = 37
Network latency average = 19.9889
	minimum = 7
	maximum = 37
Slowest packet = 5413
Flit latency average = 20.0744
	minimum = 7
	maximum = 37
Slowest flit = 5405
Fragmentation average = 0
	minimum = 0
	maximum = 0
Injected packet rate average = 0.009125
	minimum = 0.0056 (at node 11)
	maximum = 0.0124 (at node 13)
Accepted packet rate average = 0.009075
	minimum = 0.0056 (at node 14)
	maximum = 0.0128 (at node 7)
Injected flit rate average = 0.009125
	minimum = 0.0056 (at node 11)
	maximum = 0.0124 (at node 13)
Accepted flit rate average= 0.009075
	minimum = 0.0056 (at node 14)
	maximum = 0.0128 (at node 7)
Injected packet length average = 1
Accepted packet length average = 1
Total in-flight flits = 5 (5 measured)
latency change    = 0.000131803
throughput change = 0.0123967
Draining all recorded packets ...
Draining remaining packets ...
Time taken is 4060 cycles
Class 0:
Packet latency average = 18.875
	minimum = 7
	maximum = 43
Network latency average = 18.875
	minimum = 7
	maximum = 43
Slowest packet = 5848
Flit latency average = 18.875
	minimum = 7
	maximum = 43
Slowest flit = 5848
Fragmentation average = 0
	minimum = 0
	maximum = 0
Injected packet rate average = 0.010625
	minimum = 0.002 (at node 7)
	maximum = 0.02 (at node 1)
Accepted packet rate average = 0.01
	minimum = 0.002 (at node 13)
	maximum = 0.018 (at node 1)
Injected flit rate average = 0.010625
	minimum = 0.002 (at node 7)
	maximum = 0.02 (at node 1)
Accepted flit rate average= 0.01
	minimum = 0.002 (at node 13)
	maximum = 0.018 (at node 1)
Injected packet length average = 1
Accepted packet length average = 1
Total in-flight flits = 5 (0 measured)
latency change    = 1
throughput change = 1
Class 0:
Packet latency average = 20.2895
	minimum = 7
	maximum = 43
Network latency average = 20.2895
	minimum = 7
	maximum = 43
Slowest packet = 5848
Flit latency average = 20.2895
	minimum = 7
	maximum = 43
Slowest flit = 5848
Fragmentation average = 0
	minimum = 0
	maximum = 0
Injected packet rate average = 0.00975
	minimum = 0.004 (at node 9)
	maximum = 0.014 (at node 1)
Accepted packet rate average = 0.0095
	minimum = 0.004 (at node 6)
	maximum = 0.014 (at node 3)
Injected flit rate average = 0.00975
	minimum = 0.004 (at node 9)
	maximum = 0.014 (at node 1)
Accepted flit rate average= 0.0095
	minimum = 0.004 (at node 6)
	maximum = 0.014 (at node 3)
Injected packet length average = 1
Accepted packet length average = 1
Total in-flight flits = 4 (0 measured)
latency change    = 0.0697147
throughput change = 0.0526316
Class 0:
Packet latency average = 19.4186
	minimum = 7
	maximum = 37
Network latency average = 19.4186
	minimum = 7
	maximum = 37
Slowest packet = 5935
Flit latency average = 19.4186
	minimum = 7
	maximum = 37
Slowest flit = 5935
Fragmentation average = 0
	minimum = 0
	maximum = 0
Injected packet rate average = 0.0105
	minimum = 0.002 (at node 7)
	maximum = 0.016 (at node 0)
Accepted packet rate average = 0.01075
	minimum = 0.002 (at node 13)
	maximum = 0.016 (at node 0)
Injected flit rate average = 0.0105
	minimum = 0.002 (at node 7)
	maximum = 0.016 (at node 0)
Accepted flit rate average= 0.01075
	minimum = 0.002 (at node 13)
	maximum = 0.016 (at node 0)
Injected packet length average = 1
Accepted packet length average = 1
Total in-flight flits = 2 (0 measured)
latency change    = 0.0448471
throughput change = 0.116279
Warmed up ...Time used is 1500 cycles
Class 0:
Packet latency average = 19.1935
	minimum = 7
	maximum = 37
Network latency average = 19.1935
	minimum = 7
	maximum = 37
Slowest packet = 6025
Flit latency average = 19.4632
	minimum = 7
	maximum = 37
Slowest flit = 6015
Fragmentation average = 0
	minimum = 0
	maximum = 0
Injected packet rate average = 0.012
	minimum = 0.004 (at node 0)
	maximum = 0.02 (at node 11)
Accepted packet rate average = 0.011875
	minimum = 0.004 (at node 0)
	maximum = 0.02 (at node 14)
Injected flit rate average = 0.012
	minimum = 0.004 (at node 0)
	maximum = 0.02 (at node 11)
Accepted flit rate average= 0.011875
	minimum = 0.004 (at node 0)
	maximum = 0.02 (at node 14)
Injected packet length average = 1
Accepted packet length average = 1
Total in-flight flits = 3 (3 measured)
latency change    = 0.0117256
throughput change = 0.0947368
Class 0:
Packet latency average = 19.1221
	minimum = 7
	maximum = 38
Network latency average = 19.1221
	minimum = 7
	maximum = 38
Slowest packet = 6116
Flit latency average = 19.2701
	minimum = 7
	maximum = 38
Slowest flit = 6116
Fragmentation average = 0
	minimum = 0
	maximum = 0
Injected packet rate average = 0.0109375
	minimum = 0.005 (at node 1)
	maximum = 0.017 (at node 6)
Accepted packet rate average = 0.010875
	minimum = 0.004 (at node 4)
	maximum = 0.017 (at node 9)
Injected flit rate average = 0.0109375
	minimum = 0.005 (at node 1)
	maximum = 0.017 (at node 6)
Accepted flit rate average= 0.010875
	minimum = 0.004 (at node 4)
	maximum = 0.017 (at node 9)
Injected packet length average = 1
Accepted packet length average = 1
Total in-flight flits = 3 (3 measured)
latency change    = 0.0037368
throughput change = 0.091954
Class 0:
Packet latency average = 18.6042
	minimum = 7
	maximum = 38
Network latency average = 18.6042
	minimum = 7
	maximum = 38
Slowest packet = 6116
Flit latency average = 18.7149
	minimum = 7
	maximum = 38
Slowest flit = 6116
Fragmentation average = 0
	minimum = 0
	maximum = 0
Injected packet rate average = 0.0101667
	minimum = 0.006 (at node 13)
	maximum = 0.016 (at node 6)
Accepted packet rate average = 0.0100833
	minimum = 0.006 (at node 7)
	maximum = 0.016 (at node 14)
Injected flit rate average = 0.0101667
	minimum = 0.006 (at node 13)
	maximum = 0.016 (at node 6)
Accepted flit rate average= 0.0100833
	minimum = 0.006 (at node 7)
	maximum = 0.016 (at node 14)
Injected packet length average = 1
Accepted packet length average = 1
Total in-flight flits = 4 (4 measured)
latency change    = 0.0278393
throughput change = 0.0785124
Class 0:
Packet latency average = 19.2586
	minimum = 7
	maximum = 42
Network latency average = 19.2586
	minimum = 7
	maximum = 42
Slowest packet = 6314
Flit latency average = 19.3375
	minimum = 7
	maximum = 42
Slowest flit = 6314
Fragmentation average = 0
	minimum = 0
	maximum = 0
Injected packet rate average = 0.0100938
	minimum = 0.0075 (at node 13)
	maximum = 0.014 (at node 11)
Accepted packet rate average = 0.0100938
	minimum = 0.007 (at node 7)
	maximum = 0.0135 (at node 14)
Injected flit rate average = 0.0100938
	minimum = 0.0075 (at node 13)
	maximum = 0.014 (at node 11)
Accepted flit rate average= 0.0100938
	minimum = 0.007 (at node 7)
	maximum = 0.0135 (at node 14)
Injected packet length average = 1
Accepted packet length average = 1
Total in-flight flits = 2 (2 measured)
latency change    = 0.0339797
throughput change = 0.00103199
Class 0:
Packet latency average = 19.1467
	minimum = 7
	maximum = 42
Network latency average = 19.1467
	minimum = 7
	maximum = 42
Slowest packet = 6314
Flit latency average = 19.2092
	minimum = 7
	maximum = 42
Slowest flit = 6314
Fragmentation average = 0
	minimum = 0
	maximum = 0
Injected packet rate average = 0.010375
	minimum = 0.008 (at node 13)
	maximum = 0.0136 (at node 2)
Accepted packet rate average = 0.010275
	minimum = 0.008 (at node 4)
	maximum = 0.0128 (at node 8)
Injected flit rate average = 0.010375
	minimum = 0.008 (at node 13)
	maximum = 0.0136 (at node 2)
Accepted flit rate average= 0.010275
	minimum = 0.008 (at node 4)
	maximum = 0.0128 (at node 8)
Injected packet length average = 1
Accepted packet length average = 1
Total in-flight flits = 6 (6 measured)
latency change    = 0.00584266
throughput change = 0.0176399
Class 0:
Packet latency average = 19.1768
	minimum = 7
	maximum = 42
Network latency average = 19.1768
	minimum = 7
	maximum = 42
Slowest packet = 6314
Flit latency average = 19.2287
	minimum = 7
	maximum = 42
Slowest flit = 6314
Fragmentation average = 0
	minimum = 0
	maximum = 0
Injected packet rate average = 0.0103125
	minimum = 0.008 (at node 3)
	maximum = 0.013 (at node 7)
Accepted packet rate average = 0.0102917
	minimum = 0.00766667 (at node 5)
	maximum = 0.013 (at node 13)
Injected flit rate average = 0.0103125
	minimum = 0.008 (at node 3)
	maximum = 0.013 (at node 7)
Accepted flit rate average= 0.0102917
	minimum = 0.00766667 (at node 5)
	maximum = 0.013 (at node 13)
Injected packet length average = 1
Accepted packet length average = 1
Total in-flight flits = 3 (3 measured)
latency change    = 0.00157117
throughput change = 0.00161943
Draining all recorded packets ...
Draining remaining packets ...
Time taken is 4533 cycles
Class 0:
Packet latency average = 20.2093
	minimum = 7
	maximum = 37
Network latency average = 20.2093
	minimum = 7
	maximum = 37
Slowest packet = 6532
Flit latency average = 20.2093
	minimum = 7
	maximum = 37
Slowest flit = 6532
Fragmentation average = 0
	minimum = 0
	maximum = 0
Injected packet rate average = 0.011
	minimum = 0.004 (at node 6)
	maximum = 0.018 (at node 2)
Accepted packet rate average = 0.01075
	minimum = 0.002 (at node 9)
	maximum = 0.018 (at node 8)
Injected flit rate average = 0.011
	minimum = 0.004 (at node 6)
	maximum = 0.018 (at node 2)
Accepted flit rate average= 0.01075
	minimum = 0.002 (at node 9)
	maximum = 0.018 (at node 8)
Injected packet length average = 1
Accepted packet length average = 1
Total in-flight flits = 2 (0 measured)
latency change    = 1
throughput change = 1
Class 0:
Packet latency average = 20.3571
	minimum = 7
	maximum = 37
Network latency average = 20.3571
	minimum = 7
	maximum = 37
Slowest packet = 6532
Flit latency average = 20.3571
	minimum = 7
	maximum = 37
Slowest flit = 6532
Fragmentation average = 0
	minimum = 0
	maximum = 0
Injected packet rate average = 0.0105
	minimum = 0.005 (at node 0)
	maximum = 0.015 (at node 2)
Accepted packet rate average = 0.0105
	minimum = 0.005 (at node 0)
	maximum = 0.015 (at node 8)
Injected flit rate average = 0.0105
	minimum = 0.005 (at node 0)
	maximum = 0.015 (at node 2)
Accepted flit rate average= 0.0105
	minimum = 0.005 (at node 0)
	maximum = 0.015 (at node 8)
Injected packet length average = 1
Accepted packet length average = 1
Total in-flight flits = 0 (0 measured)
latency change    = 0.00726234
throughput change = 0.0238095
Class 0:
Packet latency average = 21.0789
	minimum = 7
	maximum = 37
Network latency average = 21.0789
	minimum = 7
	maximum = 37
Slowest packet = 6702
Flit latency average = 21.0789
	minimum = 7
	maximum = 37
Slowest flit = 6702
Fragmentation average = 0
	minimum = 0
	maximum = 0
Injected packet rate average = 0.00975
	minimum = 0.004 (at node 0)
	maximum = 0.014 (at node 4)
Accepted packet rate average = 0.0095
	minimum = 0.004 (at node 0)
	maximum = 0.014 (at node 3)
Injected flit rate average = 0.00975
	minimum = 0.004 (at node 0)
	maximum = 0.014 (at node 4)
Accepted flit rate average= 0.0095
	minimum = 0.004 (at node 0)
	maximum = 0.014 (at node 3)
Injected packet length average = 1
Accepted packet length average = 1
Total in-flight flits = 2 (0 measured)
latency change    = 0.0342429
throughput change = 0.105263
Warmed up ...Time used is 1500 cycles
Class 0:
Packet latency average = 18.1098
	minimum = 7
	maximum = 37
Network latency average = 18.1098
	minimum = 7
	maximum = 37
Slowest packet = 6769
Flit latency average = 17.9643
	minimum = 7
	maximum = 37
Slowest flit = 6769
Fragmentation average = 0
	minimum = 0
	maximum = 0
Injected packet rate average = 0.010375
	minimum = 0.002 (at node 13)
	maximum = 0.014 (at node 1)
Accepted packet rate average = 0.0105
	minimum = 0.002 (at node 7)
	maximum = 0.016 (at node 1)
Injected flit rate average = 0.010375
	minimum = 0.002 (at node 13)
	maximum = 0.014 (at node 1)
Accepted flit rate average= 0.0105
	minimum = 0.002 (at node 7)
	maximum = 0.016 (at node 1)
Injected packet length average = 1
Accepted packet length average = 1
Total in-flight flits = 1 (1 measured)
latency change    = 0.163955
throughput change = 0.0952381
Class 0:
Packet latency average = 18.8553
	minimum = 7
	maximum = 37
Network latency average = 18.8553
	minimum = 7
	maximum = 37
Slowest packet = 6769
Flit latency average = 18.7662
	minimum = 7
	maximum = 37
Slowest flit = 6769
Fragmentation average = 0
	minimum = 0
	maximum = 0
Injected packet rate average = 0.0098125
	minimum = 0.005 (at node 13)
	maximum = 0.013 (at node 14)
Accepted packet rate average = 0.009625
	minimum = 0.005 (at node 7)
	maximum = 0.013 (at node 1)
Injected flit rate average = 0.0098125
	minimum = 0.005 (at node 13)
	maximum = 0.013 (at node 14)
Accepted flit rate average= 0.009625
	minimum = 0.005 (at node 7)
	maximum = 0.013 (at node 1)
Injected packet length average = 1
Accepted packet length average = 1
Total in-flight flits = 5 (5 measured)
latency change    = 0.0395384
throughput change = 0.0909091
Class 0:
Packet latency average = 18.2562
	minimum = 7
	maximum = 37
Network latency average = 18.2562
	minimum = 7
	maximum = 37
Slowest packet = 6769
Flit latency average = 18.2049
	minimum = 7
	maximum = 37
Slowest flit = 6769
Fragmentation average = 0
	minimum = 0
	maximum = 0
Injected packet rate average = 0.0101667
	minimum = 0.00666667 (at node 2)
	maximum = 0.0153333 (at node 14)
Accepted packet rate average = 0.0101667
	minimum = 0.00666667 (at node 2)
	maximum = 0.0153333 (at node 11)
Injected flit rate average = 0.0101667
	minimum = 0.00666667 (at node 2)
	maximum = 0.0153333 (at node 14)
Accepted flit rate average= 0.0101667
	minimum = 0.00666667 (at node 2)
	maximum = 0.0153333 (at node 11)
Injected packet length average = 1
Accepted packet length average = 1
Total in-flight flits = 2 (2 measured)
latency change    = 0.0328143
throughput change = 0.0532787
Class 0:
Packet latency average = 18.9286
	minimum = 7
	maximum = 38
Network latency average = 18.9286
	minimum = 7
	maximum = 38
Slowest packet = 7046
Flit latency average = 18.8858
	minimum = 7
	maximum = 38
Slowest flit = 7046
Fragmentation average = 0
	minimum = 0
	maximum = 0
Injected packet rate average = 0.0101875
	minimum = 0.008 (at node 11)
	maximum = 0.0145 (at node 14)
Accepted packet rate average = 0.010125
	minimum = 0.008 (at node 6)
	maximum = 0.014 (at node 11)
Injected flit rate average = 0.0101875
	minimum = 0.008 (at node 11)
	maximum = 0.0145 (at node 14)
Accepted flit rate average= 0.010125
	minimum = 0.008 (at node 6)
	maximum = 0.014 (at node 11)
Injected packet length average = 1
Accepted packet length average = 1
Total in-flight flits = 4 (4 measured)
latency change    = 0.0355216
throughput change = 0.00411523
Class 0:
Packet latency average = 18.803
	minimum = 7
	maximum = 38
Network latency average = 18.803
	minimum = 7
	maximum = 38
Slowest packet = 7046
Flit latency average = 18.7692
	minimum = 7
	maximum = 38
Slowest flit = 7046
Fragmentation average = 0
	minimum = 0
	maximum = 0
Injected packet rate average = 0.010025
	minimum = 0.0072 (at node 12)
	maximum = 0.0148 (at node 14)
Accepted packet rate average = 0.010075
	minimum = 0.0072 (at node 3)
	maximum = 0.0148 (at node 11)
Injected flit rate average = 0.010025
	minimum = 0.0072 (at node 12)
	maximum = 0.0148 (at node 14)
Accepted flit rate average= 0.010075
	minimum = 0.0072 (at node 3)
	maximum = 0.0148 (at node 11)
Injected packet length average = 1
Accepted packet length average = 1
Total in-flight flits = 0 (0 measured)
latency change    = 0.00667867
throughput change = 0.00496278
Class 0:
Packet latency average = 18.7111
	minimum = 7
	maximum = 38
Network latency average = 18.7111
	minimum = 7
	maximum = 38
Slowest packet = 7046
Flit latency average = 18.6841
	minimum = 7
	maximum = 38
Slowest flit = 7046
Fragmentation average = 0
	minimum = 0
	maximum = 0
Injected packet rate average = 0.0104375
	minimum = 0.007 (at node 12)
	maximum = 0.0143333 (at node 14)
Accepted packet rate average = 0.0103542
	minimum = 0.00666667 (at node 3)
	maximum = 0.0143333 (at node 11)
Injected flit rate average = 0.0104375
	minimum = 0.007 (at node 12)
	maximum = 0.0143333 (at node 14)
Accepted flit rate average= 0.0103542
	minimum = 0.00666667 (at node 3)
	maximum = 0.0143333 (at node 11)
Injected packet length average = 1
Accepted packet length average = 1
Total in-flight flits = 6 (6 measured)
latency change    = 0.00491053
throughput change = 0.0269618
Draining all recorded packets ...
Draining remaining packets ...
Time taken is 4568 cycles
Class 0:
Packet latency average = 18.4624
	minimum = 7
	maximum = 40
Network latency average = 18.4624
	minimum = 7
	maximum = 40
Slowest packet = 7302
Flit latency average = 18.4624
	minimum = 7
	maximum = 40
Slowest flit = 7302
Fragmentation average = 0
	minimum = 0
	maximum = 0
Injected packet rate average = 0.011625
	minimum = 0 (at node 12)
	maximum = 0.022 (at node 2)
Accepted packet rate average = 0.011625
	minimum = 0 (at node 3)
	maximum = 0.022 (at node 8)
Injected flit rate average = 0.011625
	minimum = 0 (at node 12)
	maximum = 0.022 (at node 2)
Accepted flit rate average= 0.011625
	minimum = 0 (at node 3)
	maximum = 0.022 (at node 8)
Injected packet length average = 1
Accepted packet length average = 1
Total in-flight flits = 0 (0 measured)
latency change    = 1
throughput change = 1
Class 0:
Packet latency average = 19.3529
	minimum = 7
	maximum = 42
Network latency average = 19.3529
	minimum = 7
	maximum = 42
Slowest packet = 7384
Flit latency average = 19.3529
	minimum = 7
	maximum = 42
Slowest flit = 7384
Fragmentation average = 0
	minimum = 0
	maximum = 0
Injected packet rate average = 0.0108125
	minimum = 0.006 (at node 12)
	maximum = 0.015 (at node 7)
Accepted packet rate average = 0.010625
	minimum = 0.006 (at node 3)
	maximum = 0.015 (at node 13)
Injected flit rate average = 0.0108125
	minimum = 0.006 (at node 12)
	maximum = 0.015 (at node 7)
Accepted flit rate average= 0.010625
	minimum = 0.006 (at node 3)
	maximum = 0.015 (at node 13)
[...]
Packet latency average = 20.803
	minimum = 7
	maximum = 37
Network latency average = 20.803
	minimum = 7
	maximum = 37
Slowest packet = 32099
Flit latency average = 21.2174
	minimum = 7
	maximum = 37
Slowest flit = 32091
Fragmentation average = 0
	minimum = 0
	maximum = 0
Injected packet rate average = 0.008375
	minimum = 0.002 (at node 0)
	maximum = 0.016 (at node 3)
Accepted packet rate average = 0.008625
	minimum = 0.002 (at node 0)
	maximum = 0.016 (at node 12)
Injected flit rate average = 0.008375
	minimum = 0.002 (at node 0)
	maximum = 0.016 (at node 3)
Accepted flit rate average= 0.008625
	minimum = 0.002 (at node 0)
	maximum = 0.016 (at node 12)
Injected packet length average = 1
Accepted packet length average = 1
Total in-flight flits = 1 (1 measured)
latency change    = 0.126259
throughput change = 0.231884
Class 0:
Packet latency average = 19.2819
	minimum = 7
	maximum = 37
Network latency average = 19.2819
	minimum = 7
	maximum = 37
Slowest packet = 32099
Flit latency average = 19.5
	minimum = 7
	maximum = 37
Slowest flit = 32091
Fragmentation average = 0
	minimum = 0
	maximum = 0
Injected packet rate average = 0.0095
	minimum = 0.005 (at node 0)
	maximum = 0.015 (at node 10)
Accepted packet rate average = 0.0095
	minimum = 0.005 (at node 0)
	maximum = 0.015 (at node 10)
Injected flit rate average = 0.0095
	minimum = 0.005 (at node 0)
	maximum = 0.015 (at node 10)
Accepted flit rate average= 0.0095
	minimum = 0.005 (at node 0)
	maximum = 0.015 (at node 10)
Injected packet length average = 1
Accepted packet length average = 1
Total in-flight flits = 3 (3 measured)
latency change    = 0.0788902
throughput change = 0.0921053
Class 0:
Packet latency average = 19.9828
	minimum = 7
	maximum = 39
Network latency average = 19.9828
	minimum = 7
	maximum = 39
Slowest packet = 32290
Flit latency average = 20.1149
	minimum = 7
	maximum = 39
Slowest flit = 32290
Fragmentation average = 0
	minimum = 0
	maximum = 0
Injected packet rate average = 0.00975
	minimum = 0.006 (at node 1)
	maximum = 0.0146667 (at node 8)
Accepted packet rate average = 0.00979167
	minimum = 0.006 (at node 4)
	maximum = 0.0153333 (at node 2)
Injected flit rate average = 0.00975
	minimum = 0.006 (at node 1)
	maximum = 0.0146667 (at node 8)
Accepted flit rate average= 0.00979167
	minimum = 0.006 (at node 4)
	maximum = 0.0153333 (at node 2)
Injected packet length average = 1
Accepted packet length average = 1
Total in-flight flits = 2 (2 measured)
latency change    = 0.0350742
throughput change = 0.0297872
Class 0:
Packet latency average = 19.6895
	minimum = 7
	maximum = 39
Network latency average = 19.6895
	minimum = 7
	maximum = 39
Slowest packet = 32290
Flit latency average = 19.7929
	minimum = 7
	maximum = 39
Slowest flit = 32290
Fragmentation average = 0
	minimum = 0
	maximum = 0
Injected packet rate average = 0.00965625
	minimum = 0.0065 (at node 0)
	maximum = 0.017 (at node 8)
Accepted packet rate average = 0.00965625
	minimum = 0.0065 (at node 0)
	maximum = 0.0175 (at node 2)
Injected flit rate average = 0.00965625
	minimum = 0.0065 (at node 0)
	maximum = 0.017 (at node 8)
Accepted flit rate average= 0.00965625
	minimum = 0.0065 (at node 0)
	maximum = 0.0175 (at node 2)
Injected packet length average = 1
Accepted packet length average = 1
Total in-flight flits = 3 (3 measured)
latency change    = 0.014892
throughput change = 0.0140237
Class 0:
Packet latency average = 19.4474
	minimum = 7
	maximum = 42
Network latency average = 19.4474
	minimum = 7
	maximum = 42
Slowest packet = 32409
Flit latency average = 19.5348
	minimum = 7
	maximum = 42
Slowest flit = 32409
Fragmentation average = 0
	minimum = 0
	maximum = 0
Injected packet rate average = 0.00935
	minimum = 0.0064 (at node 0)
	maximum = 0.0152 (at node 8)
Accepted packet rate average = 0.00935
	minimum = 0.0064 (at node 0)
	maximum = 0.0148 (at node 2)
Injected flit rate average = 0.00935
	minimum = 0.0064 (at node 0)
	maximum = 0.0152 (at node 8)
Accepted flit rate average= 0.00935
	minimum = 0.0064 (at node 0)
	maximum = 0.0148 (at node 2)
Injected packet length average = 1
Accepted packet length average = 1
Total in-flight flits = 3 (3 measured)
latency change    = 0.0124491
throughput change = 0.032754
Draining all recorded packets ...
Draining remaining packets ...
Time taken is 4038 cycles
Class 0:
Packet latency average = 20.7093
	minimum = 7
	maximum = 37
Network latency average = 20.7093
	minimum = 7
	maximum = 37
Slowest packet = 32487
Flit latency average = 20.7093
	minimum = 7
	maximum = 37
Slowest flit = 32487
Fragmentation average = 0
	minimum = 0
	maximum = 0
Injected packet rate average = 0.011125
	minimum = 0.004 (at node 1)
	maximum = 0.018 (at node 2)
Accepted packet rate average = 0.01075
	minimum = 0.004 (at node 4)
	maximum = 0.016 (at node 6)
Injected flit rate average = 0.011125
	minimum = 0.004 (at node 1)
	maximum = 0.018 (at node 2)
Accepted flit rate average= 0.01075
	minimum = 0.004 (at node 4)
	maximum = 0.016 (at node 6)
Injected packet length average = 1
Accepted packet length average = 1
Total in-flight flits = 3 (0 measured)
latency change    = 1
throughput change = 1
Class 0:
Packet latency average = 19.6437
	minimum = 7
	maximum = 38
Network latency average = 19.6437
	minimum = 7
	maximum = 38
Slowest packet = 32584
Flit latency average = 19.6437
	minimum = 7
	maximum = 38
Slowest flit = 32584
Fragmentation average = 0
	minimum = 0
	maximum = 0
Injected packet rate average = 0.0110625
	minimum = 0.005 (at node 1)
	maximum = 0.019 (at node 2)
Accepted packet rate average = 0.010875
	minimum = 0.005 (at node 4)
	maximum = 0.017 (at node 8)
Injected flit rate average = 0.0110625
	minimum = 0.005 (at node 1)
	maximum = 0.019 (at node 2)
Accepted flit rate average= 0.010875
	minimum = 0.005 (at node 4)
	maximum = 0.017 (at node 8)
Injected packet length average = 1
Accepted packet length average = 1
Total in-flight flits = 3 (0 measured)
latency change    = 0.0542477
throughput change = 0.0114943
Class 0:
Packet latency average = 20.7778
	minimum = 7
	maximum = 37
Network latency average = 20.7778
	minimum = 7
	maximum = 37
Slowest packet = 32649
Flit latency average = 20.7778
	minimum = 7
	maximum = 37
Slowest flit = 32649
Fragmentation average = 0
	minimum = 0
	maximum = 0
Injected packet rate average = 0.008875
	minimum = 0.004 (at node 6)
	maximum = 0.016 (at node 9)
Accepted packet rate average = 0.009
	minimum = 0.004 (at node 2)
	maximum = 0.014 (at node 6)
Injected flit rate average = 0.008875
	minimum = 0.004 (at node 6)
	maximum = 0.016 (at node 9)
Accepted flit rate average= 0.009
	minimum = 0.004 (at node 2)
	maximum = 0.014 (at node 6)
Injected packet length average = 1
Accepted packet length average = 1
Total in-flight flits = 2 (0 measured)
latency change    = 0.0545823
throughput change = 0.208333
Warmed up ...Time used is 1500 cycles
Class 0:
Packet latency average = 19.2537
	minimum = 7
	maximum = 37
Network latency average = 19.2537
	minimum = 7
	maximum = 37
Slowest packet = 32733
Flit latency average = 19.4783
	minimum = 7
	maximum = 37
Slowest flit = 32716
Fragmentation average = 0
	minimum = 0
	maximum = 0
Injected packet rate average = 0.009
	minimum = 0.002 (at node 3)
	maximum = 0.02 (at node 4)
Accepted packet rate average = 0.008625
	minimum = 0.002 (at node 5)
	maximum = 0.02 (at node 1)
Injected flit rate average = 0.009
	minimum = 0.002 (at node 3)
	maximum = 0.02 (at node 4)
Accepted flit rate average= 0.008625
	minimum = 0.002 (at node 5)
	maximum = 0.02 (at node 1)
Injected packet length average = 1
Accepted packet length average = 1
Total in-flight flits = 5 (5 measured)
latency change    = 0.0791559
throughput change = 0.0434783
Class 0:
Packet latency average = 19.1014
	minimum = 7
	maximum = 37
Network latency average = 19.1014
	minimum = 7
	maximum = 37
Slowest packet = 32733
Flit latency average = 19.2067
	minimum = 7
	maximum = 37
Slowest flit = 32716
Fragmentation average = 0
	minimum = 0
	maximum = 0
Injected packet rate average = 0.0093125
	minimum = 0.004 (at node 13)
	maximum = 0.013 (at node 1)
Accepted packet rate average = 0.009375
	minimum = 0.004 (at node 7)
	maximum = 0.013 (at node 1)
Injected flit rate average = 0.0093125
	minimum = 0.004 (at node 13)
	maximum = 0.013 (at node 1)
Accepted flit rate average= 0.009375
	minimum = 0.004 (at node 7)
	maximum = 0.013 (at node 1)
Injected packet length average = 1
Accepted packet length average = 1
Total in-flight flits = 1 (1 measured)
latency change    = 0.00797745
throughput change = 0.08
Class 0:
Packet latency average = 19.5763
	minimum = 7
	maximum = 41
Network latency average = 19.5763
	minimum = 7
	maximum = 41
Slowest packet = 32878
Flit latency average = 19.6387
	minimum = 7
	maximum = 41
Slowest flit = 32878
Fragmentation average = 0
	minimum = 0
	maximum = 0
Injected packet rate average = 0.00991667
	minimum = 0.006 (at node 13)
	maximum = 0.012 (at node 2)
Accepted packet rate average = 0.00991667
	minimum = 0.006 (at node 7)
	maximum = 0.012 (at node 10)
Injected flit rate average = 0.00991667
	minimum = 0.006 (at node 13)
	maximum = 0.012 (at node 2)
Accepted flit rate average= 0.00991667
	minimum = 0.006 (at node 7)
	maximum = 0.012 (at node 10)
Injected packet length average = 1
Accepted packet length average = 1
Total in-flight flits = 2 (2 measured)
latency change    = 0.02426
throughput change = 0.0546218
Class 0:
Packet latency average = 19.3791
	minimum = 7
	maximum = 41
Network latency average = 19.3791
	minimum = 7
	maximum = 41
Slowest packet = 32878
Flit latency average = 19.4286
	minimum = 7
	maximum = 41
Slowest flit = 32878
Fragmentation average = 0
	minimum = 0
	maximum = 0
Injected packet rate average = 0.00965625
	minimum = 0.0065 (at node 13)
	maximum = 0.0135 (at node 11)
Accepted packet rate average = 0.009625
	minimum = 0.006 (at node 7)
	maximum = 0.0135 (at node 14)
Injected flit rate average = 0.00965625
	minimum = 0.0065 (at node 13)
	maximum = 0.0135 (at node 11)
Accepted flit rate average= 0.009625
	minimum = 0.006 (at node 7)
	maximum = 0.0135 (at node 14)
Injected packet length average = 1
Accepted packet length average = 1
Total in-flight flits = 3 (3 measured)
latency change    = 0.0101752
throughput change = 0.030303
Class 0:
Packet latency average = 19.7292
	minimum = 7
	maximum = 41
Network latency average = 19.7292
	minimum = 7
	maximum = 41
Slowest packet = 32878
Flit latency average = 19.768
	minimum = 7
	maximum = 41
Slowest flit = 32878
Fragmentation average = 0
	minimum = 0
	maximum = 0
Injected packet rate average = 0.009425
	minimum = 0.0064 (at node 13)
	maximum = 0.0128 (at node 11)
Accepted packet rate average = 0.009375
	minimum = 0.0064 (at node 7)
	maximum = 0.0128 (at node 14)
Injected flit rate average = 0.009425
	minimum = 0.0064 (at node 13)
	maximum = 0.0128 (at node 11)
Accepted flit rate average= 0.009375
	minimum = 0.0064 (at node 7)
	maximum = 0.0128 (at node 14)
Injected packet length average = 1
Accepted packet length average = 1
Total in-flight flits = 4 (4 measured)
latency change    = 0.0177472
throughput change = 0.0266667
Class 0:
Packet latency average = 19.8259
	minimum = 7
	maximum = 41
Network latency average = 19.8259
	minimum = 7
	maximum = 41
Slowest packet = 32878
Flit latency average = 19.8578
	minimum = 7
	maximum = 41
Slowest flit = 32878
Fragmentation average = 0
	minimum = 0
	maximum = 0
Injected packet rate average = 0.00941667
	minimum = 0.00633333 (at node 6)
	maximum = 0.0123333 (at node 10)
Accepted packet rate average = 0.009375
	minimum = 0.00633333 (at node 9)
	maximum = 0.0123333 (at node 10)
Injected flit rate average = 0.00941667
	minimum = 0.00633333 (at node 6)
	maximum = 0.0123333 (at node 10)
Accepted flit rate average= 0.009375
	minimum = 0.00633333 (at node 9)
	maximum = 0.0123333 (at node 10)
Injected packet length average = 1
Accepted packet length average = 1
Total in-flight flits = 4 (4 measured)
latency change    = 0.00487596
throughput change = 0
Draining all recorded packets ...
Draining remaining packets ...
Time taken is 4545 cycles
Class 0:
Packet latency average = 19.5333
	minimum = 7
	maximum = 37
Network latency average = 19.5333
	minimum = 7
	maximum = 37
Slowest packet = 33178
Flit latency average = 19.5333
	minimum = 7
	maximum = 37
Slowest flit = 33178
Fragmentation average = 0
	minimum = 0
	maximum = 0
Injected packet rate average = 0.009625
	minimum = 0.002 (at node 0)
	maximum = 0.016 (at node 6)
Accepted packet rate average = 0.009375
	minimum = 0.002 (at node 0)
	maximum = 0.016 (at node 15)
Injected flit rate average = 0.009625
	minimum = 0.002 (at node 0)
	maximum = 0.016 (at node 6)
Accepted flit rate average= 0.009375
	minimum = 0.002 (at node 0)
	maximum = 0.016 (at node 15)
Injected packet length average = 1
Accepted packet length average = 1
Total in-flight flits = 2 (0 measured)
latency change    = 1
throughput change = 1
Class 0:
Packet latency average = 19.8611
	minimum = 7
	maximum = 37
Network latency average = 19.8611
	minimum = 7
	maximum = 37
Slowest packet = 33178
Flit latency average = 19.8611
	minimum = 7
	maximum = 37
Slowest flit = 33178
Fragmentation average = 0
	minimum = 0
	maximum = 0
Injected packet rate average = 0.0090625
	minimum = 0.002 (at node 0)
	maximum = 0.012 (at node 7)
Accepted packet rate average = 0.009
	minimum = 0.002 (at node 0)
	maximum = 0.012 (at node 13)
Injected flit rate average = 0.0090625
	minimum = 0.002 (at node 0)
	maximum = 0.012 (at node 7)
Accepted flit rate average= 0.009
	minimum = 0.002 (at node 0)
	maximum = 0.012 (at node 13)
Injected packet length average = 1
Accepted packet length average = 1
Total in-flight flits = 1 (0 measured)
latency change    = 0.0165035
throughput change = 0.0416667
Class 0:
Packet latency average = 20.75
	minimum = 7
	maximum = 38
Network latency average = 20.75
	minimum = 7
	maximum = 38
Slowest packet = 33362
Flit latency average = 20.75
	minimum = 7
	maximum = 38
Slowest flit = 33362
Fragmentation average = 0
	minimum = 0
	maximum = 0
Injected packet rate average = 0.009
	minimum = 0.002 (at node 1)
	maximum = 0.02 (at node 3)
Accepted packet rate average = 0.009
	minimum = 0.002 (at node 4)
	maximum = 0.018 (at node 12)
Injected flit rate average = 0.009
	minimum = 0.002 (at node 1)
	maximum = 0.02 (at node 3)
Accepted flit rate average= 0.009
	minimum = 0.002 (at node 4)
	maximum = 0.018 (at node 12)
Injected packet length average = 1
Accepted packet length average = 1
Total in-flight flits = 1 (0 measured)
latency change    = 0.042838
throughput change = 0
Warmed up ...Time used is 1500 cycles
Class 0:
Packet latency average = 19.8824
	minimum = 7
	maximum = 37
Network latency average = 19.8824
	minimum = 7
	maximum = 37
Slowest packet = 33394
Flit latency average = 20.0814
	minimum = 7
	maximum = 37
Slowest flit = 33393
Fragmentation average = 0
	minimum = 0
	maximum = 0
Injected packet rate average = 0.01125
	minimum = 0.002 (at node 6)
	maximum = 0.02 (at node 7)
Accepted packet rate average = 0.01075
	minimum = 0 (at node 9)
	maximum = 0.02 (at node 2)
Injected flit rate average = 0.01125
	minimum = 0.002 (at node 6)
	maximum = 0.02 (at node 7)
Accepted flit rate average= 0.01075
	minimum = 0 (at node 9)
	maximum = 0.02 (at node 2)
Injected packet length average = 1
Accepted packet length average = 1
Total in-flight flits = 5 (5 measured)
latency change    = 0.0436391
throughput change = 0.162791
Class 0:
Packet latency average = 19.3395
	minimum = 7
	maximum = 37
Network latency average = 19.3395
	minimum = 7
	maximum = 37
Slowest packet = 33394
Flit latency average = 19.4479
	minimum = 7
	maximum = 37
Slowest flit = 33393
Fragmentation average = 0
	minimum = 0
	maximum = 0
Injected packet rate average = 0.010125
	minimum = 0.002 (at node 11)
	maximum = 0.016 (at node 4)
Accepted packet rate average = 0.0101875
	minimum = 0.002 (at node 14)
	maximum = 0.016 (at node 1)
Injected flit rate average = 0.010125
	minimum = 0.002 (at node 11)
	maximum = 0.016 (at node 4)
Accepted flit rate average= 0.0101875
	minimum = 0.002 (at node 14)
	maximum = 0.016 (at node 1)
Injected packet length average = 1
Accepted packet length average = 1
Total in-flight flits = 0 (0 measured)
latency change    = 0.0280693
throughput change = 0.0552147
Class 0:
Packet latency average = 19.5959
	minimum = 7
	maximum = 39
Network latency average = 19.5959
	minimum = 7
	maximum = 39
Slowest packet = 33635
Flit latency average = 19.6667
	minimum = 7
	maximum = 39
Slowest flit = 33635
Fragmentation average = 0
	minimum = 0
	maximum = 0
Injected packet rate average = 0.0102917
	minimum = 0.00333333 (at node 11)
	maximum = 0.016 (at node 7)
Accepted packet rate average = 0.01025
	minimum = 0.00333333 (at node 14)
	maximum = 0.016 (at node 13)
Injected flit rate average = 0.0102917
	minimum = 0.00333333 (at node 11)
	maximum = 0.016 (at node 7)
Accepted flit rate average= 0.01025
	minimum = 0.00333333 (at node 14)
	maximum = 0.016 (at node 13)
Injected packet length average = 1
Accepted packet length average = 1
Total in-flight flits = 2 (2 measured)
latency change    = 0.013085
throughput change = 0.00609756
Class 0:
Packet latency average = 19.7545
	minimum = 7
	maximum = 39
Network latency average = 19.7545
	minimum = 7
	maximum = 39
Slowest packet = 33635
Flit latency average = 19.8066
	minimum = 7
	maximum = 39
Slowest flit = 33635
Fragmentation average = 0
	minimum = 0
	maximum = 0
Injected packet rate average = 0.0103438
	minimum = 0.0065 (at node 10)
	maximum = 0.017 (at node 7)
Accepted packet rate average = 0.0103438
	minimum = 0.0065 (at node 10)
	maximum = 0.017 (at node 13)
Injected flit rate average = 0.0103438
	minimum = 0.0065 (at node 10)
	maximum = 0.017 (at node 7)
Accepted flit rate average= 0.0103438
	minimum = 0.0065 (at node 10)
	maximum = 0.017 (at node 13)
Injected packet length average = 1
Accepted packet length average = 1
Total in-flight flits = 1 (1 measured)
latency change    = 0.0080299
throughput change = 0.00906344
Class 0:
Packet latency average = 19.896
	minimum = 7
	maximum = 39
Network latency average = 19.896
	minimum = 7
	maximum = 39
Slowest packet = 33635
Flit latency average = 19.9383
	minimum = 7
	maximum = 39
Slowest flit = 33635
Fragmentation average = 0
	minimum = 0
	maximum = 0
Injected packet rate average = 0.010175
	minimum = 0.006 (at node 10)
	maximum = 0.0156 (at node 7)
Accepted packet rate average = 0.010125
	minimum = 0.006 (at node 10)
	maximum = 0.0156 (at node 13)
Injected flit rate average = 0.010175
	minimum = 0.006 (at node 10)
	maximum = 0.0156 (at node 7)
Accepted flit rate average= 0.010125
	minimum = 0.006 (at node 10)
	maximum = 0.0156 (at node 13)
Injected packet length average = 1
Accepted packet length average = 1
Total in-flight flits = 3 (3 measured)
latency change    = 0.00711167
throughput change = 0.0216049
Draining all recorded packets ...
Draining remaining packets ...
Time taken is 4035 cycles
====== Overall Traffic Statistics ======
====== Traffic class 0 ======
Packet latency average = 19.5388 (50 samples)
	minimum = 7 (50 samples)
	maximum = 40.64 (50 samples)
Network latency average = 19.5388 (50 samples)
	minimum = 7 (50 samples)
	maximum = 40.64 (50 samples)
Flit latency average = 19.5786 (50 samples)
	minimum = 7 (50 samples)
	maximum = 40.66 (50 samples)
Fragmentation average = 0 (50 samples)
	minimum = 0 (50 samples)
	maximum = 0 (50 samples)
Injected packet rate average = 0.00999642 (50 samples)
	minimum = 0.00690924 (50 samples)
	maximum = 0.0136398 (50 samples)
Accepted packet rate average = 0.00999535 (50 samples)
	minimum = 0.00686943 (50 samples)
	maximum = 0.0136072 (50 samples)
Injected flit rate average = 0.00999642 (50 samples)
	minimum = 0.00690924 (50 samples)
	maximum = 0.0136398 (50 samples)
Accepted flit rate average = 0.00999535 (50 samples)
	minimum = 0.00686943 (50 samples)
	maximum = 0.0136072 (50 samples)
Injected packet size average = 1 (50 samples)
Accepted packet size average = 1 (50 samples)
Hops average = 3.49542 (50 samples)
Total run time 1.35067
