BEGIN Configuration File: /tmp/tmp5y9yz53t.cfg
topology = mesh;
k = 4;
n = 2;
routing_function = gnn_port_score_route_4x4_v4;
num_vcs = 4;
vc_buf_size = 4;
wait_for_tail_credit = 1;
vc_allocator = islip;
sw_allocator = islip;
alloc_iters = 1;
credit_delay = 2;
routing_delay = 1;
vc_alloc_delay = 1;
sw_alloc_delay = 1;
input_speedup = 2;
output_speedup = 1;
internal_speedup = 1.0;
traffic = transpose;
packet_size = 1;
sim_type = latency;
injection_rate = 0.05;
warmup_periods = 3;
sample_period = 500;
sim_count = 50;
seed = 1;
link_failures = 7;
fail_seed = 101;

END Configuration File: /tmp/tmp5y9yz53t.cfg
failure at node 14, channel 0 (1/7)
failure at node 12, channel 0 (2/7)
failure at node 4, channel 2 (3/7)
failure at node 11, channel 1 (4/7)
failure at node 5, channel 3 (5/7)
failure at node 9, channel 0 (6/7)
failure at node 8, channel 3 (7/7)
Class 0:
Packet latency average = 22.2633
	minimum = 7
	maximum = 106
Network latency average = 22.2633
	minimum = 7
	maximum = 106
Slowest packet = 107
Flit latency average = 22.2633
	minimum = 7
	maximum = 106
Slowest flit = 107
Fragmentation average = 0
	minimum = 0
	maximum = 0
Injected packet rate average = 0.049125
	minimum = 0.032 (at node 9)
	maximum = 0.074 (at node 1)
Accepted packet rate average = 0.047
	minimum = 0.032 (at node 6)
	maximum = 0.07 (at node 4)
Injected flit rate average = 0.049125
	minimum = 0.032 (at node 9)
	maximum = 0.074 (at node 1)
Accepted flit rate average= 0.047
	minimum = 0.032 (at node 6)
	maximum = 0.07 (at node 4)
Injected packet length average = 1
Accepted packet length average = 1
Total in-flight flits = 17 (0 measured)
latency change    = 1
throughput change = 1
Class 0:
Packet latency average = 21.8396
	minimum = 7
	maximum = 113
Network latency average = 21.8396
	minimum = 7
	maximum = 113
Slowest packet = 451
Flit latency average = 21.8396
	minimum = 7
	maximum = 113
Slowest flit = 451
Fragmentation average = 0
	minimum = 0
	maximum = 0
Injected packet rate average = 0.0505
	minimum = 0.038 (at node 9)
	maximum = 0.073 (at node 1)
Accepted packet rate average = 0.0495
	minimum = 0.036 (at node 6)
	maximum = 0.072 (at node 4)
Injected flit rate average = 0.0505
	minimum = 0.038 (at node 9)
	maximum = 0.073 (at node 1)
Accepted flit rate average= 0.0495
	minimum = 0.036 (at node 6)
	maximum = 0.072 (at node 4)
Injected packet length average = 1
Accepted packet length average = 1
Total in-flight flits = 16 (0 measured)
latency change    = 0.0193983
throughput change = 0.0505051
Class 0:
Packet latency average = 24.8133
	minimum = 7
	maximum = 191
Network latency average = 24.601
	minimum = 7
	maximum = 177
Slowest packet = 973
Flit latency average = 24.601
	minimum = 7
	maximum = 177
Slowest flit = 973
Fragmentation average = 0
	minimum = 0
	maximum = 0
Injected packet rate average = 0.05
	minimum = 0.038 (at node 10)
	maximum = 0.066 (at node 1)
Accepted packet rate average = 0.048875
	minimum = 0.034 (at node 2)
	maximum = 0.068 (at node 4)
Injected flit rate average = 0.05
	minimum = 0.038 (at node 10)
	maximum = 0.066 (at node 1)
Accepted flit rate average= 0.048875
	minimum = 0.034 (at node 2)
	maximum = 0.068 (at node 4)
Injected packet length average = 1
Accepted packet length average = 1
Total in-flight flits = 25 (0 measured)
latency change    = 0.119841
throughput change = 0.0127877
Warmed up ...Time used is 1500 cycles
Class 0:
Packet latency average = 31.3394
	minimum = 7
	maximum = 363
Network latency average = 29.6632
	minimum = 7
	maximum = 363
Slowest packet = 1289
Flit latency average = 32.3088
	minimum = 7
	maximum = 363
Slowest flit = 1289
Fragmentation average = 0
	minimum = 0
	maximum = 0
Injected packet rate average = 0.051625
	minimum = 0.03 (at node 4)
	maximum = 0.074 (at node 10)
Accepted packet rate average = 0.051
	minimum = 0.028 (at node 3)
	maximum = 0.072 (at node 10)
Injected flit rate average = 0.051625
	minimum = 0.03 (at node 4)
	maximum = 0.074 (at node 10)
Accepted flit rate average= 0.051
	minimum = 0.028 (at node 3)
	maximum = 0.072 (at node 10)
Injected packet length average = 1
Accepted packet length average = 1
Total in-flight flits = 31 (31 measured)
latency change    = 0.20824
throughput change = 0.0416667
Class 0:
Packet latency average = 42.616
	minimum = 7
	maximum = 626
Network latency average = 32.5125
	minimum = 7
	maximum = 457
Slowest packet = 1315
Flit latency average = 33.7316
	minimum = 7
	maximum = 457
Slowest flit = 1315
Fragmentation average = 0
	minimum = 0
	maximum = 0
Injected packet rate average = 0.052125
	minimum = 0.034 (at node 12)
	maximum = 0.065 (at node 3)
Accepted packet rate average = 0.0516875
	minimum = 0.03 (at node 3)
	maximum = 0.064 (at node 12)
Injected flit rate average = 0.052125
	minimum = 0.034 (at node 12)
	maximum = 0.065 (at node 3)
Accepted flit rate average= 0.0516875
	minimum = 0.03 (at node 3)
	maximum = 0.064 (at node 12)
Injected packet length average = 1
Accepted packet length average = 1
Total in-flight flits = 33 (33 measured)
latency change    = 0.264608
throughput change = 0.0133011
Class 0:
Packet latency average = 48.5847
	minimum = 7
	maximum = 825
Network latency average = 32.5455
	minimum = 7
	maximum = 457
Slowest packet = 1315
Flit latency average = 33.3685
	minimum = 7
	maximum = 457
Slowest flit = 1315
Fragmentation average = 0
	minimum = 0
	maximum = 0
Injected packet rate average = 0.051375
	minimum = 0.034 (at node 12)
	maximum = 0.0646667 (at node 8)
Accepted packet rate average = 0.051
	minimum = 0.032 (at node 3)
	maximum = 0.064 (at node 2)
Injected flit rate average = 0.051375
	minimum = 0.034 (at node 12)
	maximum = 0.0646667 (at node 8)
Accepted flit rate average= 0.051
	minimum = 0.032 (at node 3)
	maximum = 0.064 (at node 2)
Injected packet length average = 1
Accepted packet length average = 1
Total in-flight flits = 36 (36 measured)
latency change    = 0.122851
throughput change = 0.0134804
Class 0:
Packet latency average = 52.8482
	minimum = 7
	maximum = 1000
Network latency average = 32.4565
	minimum = 7
	maximum = 457
Slowest packet = 1315
Flit latency average = 33.0825
	minimum = 7
	maximum = 457
Slowest flit = 1315
Fragmentation average = 0
	minimum = 0
	maximum = 0
Injected packet rate average = 0.0505625
	minimum = 0.0345 (at node 12)
	maximum = 0.064 (at node 8)
Accepted packet rate average = 0.0504062
	minimum = 0.033 (at node 3)
	maximum = 0.0645 (at node 2)
Injected flit rate average = 0.0505625
	minimum = 0.0345 (at node 12)
	maximum = 0.064 (at node 8)
Accepted flit rate average= 0.0504062
	minimum = 0.033 (at node 3)
	maximum = 0.0645 (at node 2)
Injected packet length average = 1
Accepted packet length average = 1
Total in-flight flits = 31 (31 measured)
latency change    = 0.080676
throughput change = 0.0117793
Class 0:
Packet latency average = 54.1543
	minimum = 7
	maximum = 1166
Network latency average = 32.9012
	minimum = 7
	maximum = 475
Slowest packet = 1315
Flit latency average = 33.3984
	minimum = 7
	maximum = 475
Slowest flit = 2721
Fragmentation average = 0
	minimum = 0
	maximum = 0
Injected packet rate average = 0.05015
	minimum = 0.0324 (at node 12)
	maximum = 0.0616 (at node 8)
Accepted packet rate average = 0.0502
	minimum = 0.0312 (at node 3)
	maximum = 0.0612 (at node 2)
Injected flit rate average = 0.05015
	minimum = 0.0324 (at node 12)
	maximum = 0.0616 (at node 8)
Accepted flit rate average= 0.0502
	minimum = 0.0312 (at node 3)
	maximum = 0.0612 (at node 2)
Injected packet length average = 1
Accepted packet length average = 1
Total in-flight flits = 25 (25 measured)
latency change    = 0.0241177
throughput change = 0.00410857
Class 0:
Packet latency average = 59.4213
	minimum = 7
	maximum = 1227
Network latency average = 32.9938
	minimum = 7
	maximum = 475
Slowest packet = 1315
Flit latency average = 33.4042
	minimum = 7
	maximum = 475
Slowest flit = 2721
Fragmentation average = 0
	minimum = 0
	maximum = 0
Injected packet rate average = 0.0504583
	minimum = 0.0336667 (at node 12)
	maximum = 0.0596667 (at node 8)
Accepted packet rate average = 0.0505625
	minimum = 0.033 (at node 3)
	maximum = 0.0603333 (at node 2)
Injected flit rate average = 0.0504583
	minimum = 0.0336667 (at node 12)
	maximum = 0.0596667 (at node 8)
Accepted flit rate average= 0.0505625
	minimum = 0.033 (at node 3)
	maximum = 0.0603333 (at node 2)
Injected packet length average = 1
Accepted packet length average = 1
Total in-flight flits = 21 (21 measured)
latency change    = 0.0886383
throughput change = 0.00716934
Class 0:
Packet latency average = 61.1031
	minimum = 7
	maximum = 1434
Network latency average = 32.6836
	minimum = 7
	maximum = 475
Slowest packet = 1315
Flit latency average = 33.035
	minimum = 7
	maximum = 475
Slowest flit = 2721
Fragmentation average = 0
	minimum = 0
	maximum = 0
Injected packet rate average = 0.0511607
	minimum = 0.0337143 (at node 12)
	maximum = 0.0582857 (at node 8)
Accepted packet rate average = 0.0510179
	minimum = 0.0328571 (at node 3)
	maximum = 0.0582857 (at node 2)
Injected flit rate average = 0.0511607
	minimum = 0.0337143 (at node 12)
	maximum = 0.0582857 (at node 8)
Accepted flit rate average= 0.0510179
	minimum = 0.0328571 (at node 3)
	maximum = 0.0582857 (at node 2)
Injected packet length average = 1
Accepted packet length average = 1
Total in-flight flits = 34 (34 measured)
latency change    = 0.0275238
throughput change = 0.00892545
Draining all recorded packets ...
Class 0:
Remaining flits: 4813 4823 4829 4834 4841 4850 4851 4852 4855 4857 [...] (25 flits)
Measured flits: 4813 (1 flits)
Draining remaining packets ...
Time taken is 6090 cycles
Class 0:
Packet latency average = 21.9541
	minimum = 7
	maximum = 116
Network latency average = 21.9541
	minimum = 7
	maximum = 116
Slowest packet = 5127
Flit latency average = 21.9541
	minimum = 7
	maximum = 116
Slowest flit = 5127
Fragmentation average = 0
	minimum = 0
	maximum = 0
Injected packet rate average = 0.051
	minimum = 0.032 (at node 13)
	maximum = 0.07 (at node 6)
Accepted packet rate average = 0.049
	minimum = 0.028 (at node 3)
	maximum = 0.07 (at node 9)
Injected flit rate average = 0.051
	minimum = 0.032 (at node 13)
	maximum = 0.07 (at node 6)
Accepted flit rate average= 0.049
	minimum = 0.028 (at node 3)
	maximum = 0.07 (at node 9)
Injected packet length average = 1
Accepted packet length average = 1
Total in-flight flits = 16 (0 measured)
latency change    = 1
throughput change = 1
Class 0:
Packet latency average = 23.6158
	minimum = 7
	maximum = 124
Network latency average = 23.5932
	minimum = 7
	maximum = 124
Slowest packet = 5511
Flit latency average = 23.5932
	minimum = 7
	maximum = 124
Slowest flit = 5511
Fragmentation average = 0
	minimum = 0
	maximum = 0
Injected packet rate average = 0.0509375
	minimum = 0.039 (at node 12)
	maximum = 0.059 (at node 0)
Accepted packet rate average = 0.0499375
	minimum = 0.035 (at node 3)
	maximum = 0.059 (at node 0)
Injected flit rate average = 0.0509375
	minimum = 0.039 (at node 12)
	maximum = 0.059 (at node 0)
Accepted flit rate average= 0.0499375
	minimum = 0.035 (at node 3)
	maximum = 0.059 (at node 0)
Injected packet length average = 1
Accepted packet length average = 1
Total in-flight flits = 16 (0 measured)
latency change    = 0.0703635
throughput change = 0.0187735
Class 0:
Packet latency average = 24.9734
	minimum = 7
	maximum = 152
Network latency average = 24.9122
	minimum = 7
	maximum = 152
Slowest packet = 5881
Flit latency average = 24.9122
	minimum = 7
	maximum = 152
Slowest flit = 5881
Fragmentation average = 0
	minimum = 0
	maximum = 0
Injected packet rate average = 0.0475
	minimum = 0.026 (at node 3)
	maximum = 0.062 (at node 2)
Accepted packet rate average = 0.047
	minimum = 0.024 (at node 12)
	maximum = 0.066 (at node 8)
Injected flit rate average = 0.0475
	minimum = 0.026 (at node 3)
	maximum = 0.062 (at node 2)
Accepted flit rate average= 0.047
	minimum = 0.024 (at node 12)
	maximum = 0.066 (at node 8)
Injected packet length average = 1
Accepted packet length average = 1
Total in-flight flits = 20 (0 measured)
latency change    = 0.0543632
throughput change = 0.0625
Warmed up ...Time used is 1500 cycles
Class 0:
Packet latency average = 21.5183
	minimum = 7
	maximum = 78
Network latency average = 21.5183
	minimum = 7
	maximum = 78
Slowest packet = 6360
Flit latency average = 22.893
	minimum = 7
	maximum = 121
Slowest flit = 6010
Fragmentation average = 0
	minimum = 0
	maximum = 0
Injected packet rate average = 0.05025
	minimum = 0.03 (at node 8)
	maximum = 0.066 (at node 3)
Accepted packet rate average = 0.05025
	minimum = 0.032 (at node 2)
	maximum = 0.066 (at node 3)
Injected flit rate average = 0.05025
	minimum = 0.03 (at node 8)
	maximum = 0.066 (at node 3)
Accepted flit rate average= 0.05025
	minimum = 0.032 (at node 2)
	maximum = 0.066 (at node 3)
Injected packet length average = 1
Accepted packet length average = 1
Total in-flight flits = 20 (20 measured)
latency change    = 0.160565
throughput change = 0.0646766
Class 0:
Packet latency average = 22.6571
	minimum = 7
	maximum = 133
Network latency average = 22.6571
	minimum = 7
	maximum = 133
Slowest packet = 6632
Flit latency average = 23.3304
	minimum = 7
	maximum = 133
Slowest flit = 6632
Fragmentation average = 0
	minimum = 0
	maximum = 0
Injected packet rate average = 0.0490625
	minimum = 0.035 (at node 8)
	maximum = 0.062 (at node 4)
Accepted packet rate average = 0.0491875
	minimum = 0.035 (at node 2)
	maximum = 0.062 (at node 3)
Injected flit rate average = 0.0490625
	minimum = 0.035 (at node 8)
	maximum = 0.062 (at node 4)
Accepted flit rate average= 0.0491875
	minimum = 0.035 (at node 2)
	maximum = 0.062 (at node 3)
Injected packet length average = 1
Accepted packet length average = 1
Total in-flight flits = 18 (18 measured)
latency change    = 0.0502615
throughput change = 0.021601
Class 0:
Packet latency average = 22.3013
	minimum = 7
	maximum = 133
Network latency average = 22.3013
	minimum = 7
	maximum = 133
Slowest packet = 6632
Flit latency average = 22.7583
	minimum = 7
	maximum = 133
Slowest flit = 6632
Fragmentation average = 0
	minimum = 0
	maximum = 0
Injected packet rate average = 0.0492083
	minimum = 0.0373333 (at node 8)
	maximum = 0.0566667 (at node 4)
Accepted packet rate average = 0.0489583
	minimum = 0.0373333 (at node 2)
	maximum = 0.0586667 (at node 3)
Injected flit rate average = 0.0492083
	minimum = 0.0373333 (at node 8)
	maximum = 0.0566667 (at node 4)
Accepted flit rate average= 0.0489583
	minimum = 0.0373333 (at node 2)
	maximum = 0.0586667 (at node 3)
Injected packet length average = 1
Accepted packet length average = 1
Total in-flight flits = 26 (26 measured)
latency change    = 0.0159545
throughput change = 0.00468085
Class 0:
Packet latency average = 22.3568
	minimum = 7
	maximum = 133
Network latency average = 22.3568
	minimum = 7
	maximum = 133
Slowest packet = 6632
Flit latency average = 22.7012
	minimum = 7
	maximum = 133
Slowest flit = 6632
Fragmentation average = 0
	minimum = 0
	maximum = 0
Injected packet rate average = 0.0488125
	minimum = 0.039 (at node 8)
	maximum = 0.057 (at node 12)
Accepted packet rate average = 0.048625
	minimum = 0.0375 (at node 2)
	maximum = 0.0565 (at node 3)
Injected flit rate average = 0.0488125
	minimum = 0.039 (at node 8)
	maximum = 0.057 (at node 12)
Accepted flit rate average= 0.048625
	minimum = 0.0375 (at node 2)
	maximum = 0.0565 (at node 3)
Injected packet length average = 1
Accepted packet length average = 1
Total in-flight flits = 27 (27 measured)
latency change    = 0.00248122
throughput change = 0.00685518
Class 0:
Packet latency average = 24.618
	minimum = 7
	maximum = 349
Network latency average = 24.2258
	minimum = 7
	maximum = 304
Slowest packet = 7613
Flit latency average = 24.4801
	minimum = 7
	maximum = 304
Slowest flit = 7613
Fragmentation average = 0
	minimum = 0
	maximum = 0
Injected packet rate average = 0.0492
	minimum = 0.0424 (at node 1)
	maximum = 0.056 (at node 14)
Accepted packet rate average = 0.049
	minimum = 0.0408 (at node 2)
	maximum = 0.0564 (at node 11)
Injected flit rate average = 0.0492
	minimum = 0.0424 (at node 1)
	maximum = 0.056 (at node 14)
Accepted flit rate average= 0.049
	minimum = 0.0408 (at node 2)
	maximum = 0.0564 (at node 11)
Injected packet length average = 1
Accepted packet length average = 1
Total in-flight flits = 30 (30 measured)
latency change    = 0.0918542
throughput change = 0.00765306
Class 0:
Packet latency average = 27.0876
	minimum = 7
	maximum = 349
Network latency average = 25.8714
	minimum = 7
	maximum = 304
Slowest packet = 7613
Flit latency average = 26.0706
	minimum = 7
	maximum = 304
Slowest flit = 7613
Fragmentation average = 0
	minimum = 0
	maximum = 0
Injected packet rate average = 0.0487917
	minimum = 0.0446667 (at node 8)
	maximum = 0.055 (at node 11)
Accepted packet rate average = 0.0487083
	minimum = 0.045 (at node 2)
	maximum = 0.0556667 (at node 14)
Injected flit rate average = 0.0487917
	minimum = 0.0446667 (at node 8)
	maximum = 0.055 (at node 11)
Accepted flit rate average= 0.0487083
	minimum = 0.045 (at node 2)
	maximum = 0.0556667 (at node 14)
Injected packet length average = 1
Accepted packet length average = 1
Total in-flight flits = 25 (25 measured)
latency change    = 0.0911685
throughput change = 0.00598802
Class 0:
Packet latency average = 27.8491
	minimum = 7
	maximum = 349
Network latency average = 26.2828
	minimum = 7
	maximum = 304
Slowest packet = 7613
Flit latency average = 26.4495
	minimum = 7
	maximum = 304
Slowest flit = 7613
Fragmentation average = 0
	minimum = 0
	maximum = 0
Injected packet rate average = 0.0488929
	minimum = 0.0451429 (at node 13)
	maximum = 0.0554286 (at node 11)
Accepted packet rate average = 0.0489821
	minimum = 0.0454286 (at node 1)
	maximum = 0.056 (at node 14)
Injected flit rate average = 0.0488929
	minimum = 0.0451429 (at node 13)
	maximum = 0.0554286 (at node 11)
Accepted flit rate average= 0.0489821
	minimum = 0.0454286 (at node 1)
	maximum = 0.056 (at node 14)
Injected packet length average = 1
Accepted packet length average = 1
Total in-flight flits = 15 (15 measured)
latency change    = 0.0273434
throughput change = 0.00558999
Draining all recorded packets ...
Draining remaining packets ...
Time taken is 5096 cycles
Class 0:
Packet latency average = 22.9558
	minimum = 7
	maximum = 121
Network latency average = 22.9558
	minimum = 7
	maximum = 121
Slowest packet = 8940
Flit latency average = 22.9558
	minimum = 7
	maximum = 121
Slowest flit = 8940
Fragmentation average = 0
	minimum = 0
	maximum = 0
Injected packet rate average = 0.050125
	minimum = 0.036 (at node 10)
	maximum = 0.062 (at node 7)
Accepted packet rate average = 0.048125
	minimum = 0.036 (at node 7)
	maximum = 0.06 (at node 4)
Injected flit rate average = 0.050125
	minimum = 0.036 (at node 10)
	maximum = 0.062 (at node 7)
Accepted flit rate average= 0.048125
	minimum = 0.036 (at node 7)
	maximum = 0.06 (at node 4)
Injected packet length average = 1
Accepted packet length average = 1
Total in-flight flits = 16 (0 measured)
latency change    = 1
throughput change = 1
Class 0:
Packet latency average = 21.6946
	minimum = 7
	maximum = 121
Network latency average = 21.6946
	minimum = 7
	maximum = 121
Slowest packet = 8940
Flit latency average = 21.6946
	minimum = 7
	maximum = 121
Slowest flit = 8940
Fragmentation average = 0
	minimum = 0
	maximum = 0
Injected packet rate average = 0.0486875
	minimum = 0.04 (at node 8)
	maximum = 0.067 (at node 2)
Accepted packet rate average = 0.0470625
	minimum = 0.038 (at node 2)
	maximum = 0.063 (at node 13)
Injected flit rate average = 0.0486875
	minimum = 0.04 (at node 8)
	maximum = 0.067 (at node 2)
Accepted flit rate average= 0.0470625
	minimum = 0.038 (at node 2)
	maximum = 0.063 (at node 13)
Injected packet length average = 1
Accepted packet length average = 1
Total in-flight flits = 26 (0 measured)
latency change    = 0.0581385
throughput change = 0.0225764
Class 0:
Packet latency average = 21.2818
	minimum = 7
	maximum = 64
Network latency average = 21.2818
	minimum = 7
	maximum = 64
Slowest packet = 9631
Flit latency average = 21.2818
	minimum = 7
	maximum = 64
Slowest flit = 9631
Fragmentation average = 0
	minimum = 0
	maximum = 0
Injected packet rate average = 0.04775
	minimum = 0.034 (at node 9)
	maximum = 0.064 (at node 2)
Accepted packet rate average = 0.050125
	minimum = 0.038 (at node 6)
	maximum = 0.072 (at node 8)
Injected flit rate average = 0.04775
	minimum = 0.034 (at node 9)
	maximum = 0.064 (at node 2)
Accepted flit rate average= 0.050125
	minimum = 0.038 (at node 6)
	maximum = 0.072 (at node 8)
Injected packet length average = 1
Accepted packet length average = 1
Total in-flight flits = 7 (0 measured)
latency change    = 0.019395
throughput change = 0.0610973
Warmed up ...Time used is 1500 cycles
Class 0:
Packet latency average = 20.2554
	minimum = 7
	maximum = 54
Network latency average = 20.2554
	minimum = 7
	maximum = 54
Slowest packet = 10247
Flit latency average = 20.5093
	minimum = 7
	maximum = 54
Slowest flit = 10247
Fragmentation average = 0
	minimum = 0
	maximum = 0
Injected packet rate average = 0.048875
	minimum = 0.032 (at node 12)
	maximum = 0.068 (at node 13)
Accepted packet rate average = 0.046875
	minimum = 0.032 (at node 3)
	maximum = 0.058 (at node 0)
Injected flit rate average = 0.048875
	minimum = 0.032 (at node 12)
	maximum = 0.068 (at node 13)
Accepted flit rate average= 0.046875
	minimum = 0.032 (at node 3)
	maximum = 0.058 (at node 0)
Injected packet length average = 1
Accepted packet length average = 1
Total in-flight flits = 23 (23 measured)
latency change    = 0.0506709
throughput change = 0.0693333
Class 0:
Packet latency average = 25.5263
	minimum = 7
	maximum = 226
Network latency average = 25.0974
	minimum = 7
	maximum = 226
Slowest packet = 10547
Flit latency average = 25.1773
	minimum = 7
	maximum = 226
Slowest flit = 10547
Fragmentation average = 0
	minimum = 0
	maximum = 0
Injected packet rate average = 0.0493125
	minimum = 0.037 (at node 12)
	maximum = 0.059 (at node 8)
Accepted packet rate average = 0.0479375
	minimum = 0.032 (at node 3)
	maximum = 0.058 (at node 7)
Injected flit rate average = 0.0493125
	minimum = 0.037 (at node 12)
	maximum = 0.059 (at node 8)
Accepted flit rate average= 0.0479375
	minimum = 0.032 (at node 3)
	maximum = 0.058 (at node 7)
Injected packet length average = 1
Accepted packet length average = 1
Total in-flight flits = 29 (29 measured)
latency change    = 0.206488
throughput change = 0.0221643
Class 0:
Packet latency average = 27.1643
	minimum = 7
	maximum = 261
Network latency average = 26.7014
	minimum = 7
	maximum = 244
Slowest packet = 10698
Flit latency average = 26.7454
	minimum = 7
	maximum = 244
Slowest flit = 10698
Fragmentation average = 0
	minimum = 0
	maximum = 0
Injected packet rate average = 0.0480417
	minimum = 0.0393333 (at node 12)
	maximum = 0.058 (at node 8)
Accepted packet rate average = 0.0474583
	minimum = 0.0386667 (at node 3)
	maximum = 0.056 (at node 2)
Injected flit rate average = 0.0480417
	minimum = 0.0393333 (at node 12)
	maximum = 0.058 (at node 8)
Accepted flit rate average= 0.0474583
	minimum = 0.0386667 (at node 3)
	maximum = 0.056 (at node 2)
Injected packet length average = 1
Accepted packet length average = 1
Total in-flight flits = 21 (21 measured)
latency change    = 0.0602995
throughput change = 0.0100966
Class 0:
Packet latency average = 25.8194
	minimum = 7
	maximum = 261
Network latency average = 25.4778
	minimum = 7
	maximum = 244
Slowest packet = 10698
Flit latency average = 25.5159
	minimum = 7
	maximum = 244
Slowest flit = 10698
Fragmentation average = 0
	minimum = 0
	maximum = 0
Injected packet rate average = 0.0482187
	minimum = 0.04 (at node 12)
	maximum = 0.0535 (at node 0)
Accepted packet rate average = 0.0481562
	minimum = 0.041 (at node 3)
	maximum = 0.0535 (at node 0)
Injected flit rate average = 0.0482187
	minimum = 0.04 (at node 12)
	maximum = 0.0535 (at node 0)
Accepted flit rate average= 0.0481562
	minimum = 0.041 (at node 3)
	maximum = 0.0535 (at node 0)
Injected packet length average = 1
Accepted packet length average = 1
Total in-flight flits = 9 (9 measured)
latency change    = 0.0520881
throughput change = 0.0144928
Class 0:
Packet latency average = 26.2743
	minimum = 7
	maximum = 292
Network latency average = 25.734
	minimum = 7
	maximum = 281
Slowest packet = 11756
Flit latency average = 25.7633
	minimum = 7
	maximum = 281
Slowest flit = 11756
Fragmentation average = 0
	minimum = 0
	maximum = 0
Injected packet rate average = 0.04905
	minimum = 0.0424 (at node 12)
	maximum = 0.0568 (at node 10)
Accepted packet rate average = 0.048475
	minimum = 0.0408 (at node 3)
	maximum = 0.0568 (at node 10)
Injected flit rate average = 0.04905
	minimum = 0.0424 (at node 12)
	maximum = 0.0568 (at node 10)
Accepted flit rate average= 0.048475
	minimum = 0.0408 (at node 3)
	maximum = 0.0568 (at node 10)
Injected packet length average = 1
Accepted packet length average = 1
Total in-flight flits = 32 (32 measured)
latency change    = 0.0173135
throughput change = 0.00657555
Class 0:
Packet latency average = 30.1039
	minimum = 7
	maximum = 485
Network latency average = 27.0646
	minimum = 7
	maximum = 331
Slowest packet = 11756
Flit latency average = 27.0849
	minimum = 7
	maximum = 331
Slowest flit = 11963
Fragmentation average = 0
	minimum = 0
	maximum = 0
Injected packet rate average = 0.0492917
	minimum = 0.0423333 (at node 15)
	maximum = 0.057 (at node 10)
Accepted packet rate average = 0.0488542
	minimum = 0.041 (at node 3)
	maximum = 0.057 (at node 10)
Injected flit rate average = 0.0492917
	minimum = 0.0423333 (at node 15)
	maximum = 0.057 (at node 10)
Accepted flit rate average= 0.0488542
	minimum = 0.041 (at node 3)
	maximum = 0.057 (at node 10)
Injected packet length average = 1
Accepted packet length average = 1
Total in-flight flits = 29 (29 measured)
latency change    = 0.127213
throughput change = 0.00776119
Class 0:
Packet latency average = 30.8575
	minimum = 7
	maximum = 485
Network latency average = 27.2917
	minimum = 7
	maximum = 331
Slowest packet = 11756
Flit latency average = 27.3084
	minimum = 7
	maximum = 331
Slowest flit = 11963
Fragmentation average = 0
	minimum = 0
	maximum = 0
Injected packet rate average = 0.0494286
	minimum = 0.0431429 (at node 15)
	maximum = 0.0571429 (at node 10)
Accepted packet rate average = 0.0491071
	minimum = 0.0428571 (at node 3)
	maximum = 0.0568571 (at node 10)
Injected flit rate average = 0.0494286
	minimum = 0.0431429 (at node 15)
	maximum = 0.0571429 (at node 10)
Accepted flit rate average= 0.0491071
	minimum = 0.0428571 (at node 3)
	maximum = 0.0568571 (at node 10)
Injected packet length average = 1
Accepted packet length average = 1
Total in-flight flits = 25 (25 measured)
latency change    = 0.0244194
throughput change = 0.00515152
Draining all recorded packets ...
Draining remaining packets ...
Time taken is 5324 cycles
Class 0:
Packet latency average = 23.2192
	minimum = 7
	maximum = 136
Network latency average = 23.2192
	minimum = 7
	maximum = 136
Slowest packet = 13077
Flit latency average = 23.2192
	minimum = 7
	maximum = 136
Slowest flit = 13077
Fragmentation average = 0
	minimum = 0
	maximum = 0
Injected packet rate average = 0.04675
	minimum = 0.036 (at node 9)
	maximum = 0.07 (at node 0)
Accepted packet rate average = 0.045625
	minimum = 0.036 (at node 6)
	maximum = 0.07 (at node 0)
Injected flit rate average = 0.04675
	minimum = 0.036 (at node 9)
	maximum = 0.07 (at node 0)
Accepted flit rate average= 0.045625
	minimum = 0.036 (at node 6)
	maximum = 0.07 (at node 0)
Injected packet length average = 1
Accepted packet length average = 1
Total in-flight flits = 9 (0 measured)
latency change    = 1
throughput change = 1
Class 0:
Packet latency average = 22.7297
	minimum = 7
	maximum = 137
Network latency average = 22.7297
	minimum = 7
	maximum = 137
Slowest packet = 13634
Flit latency average = 22.7297
	minimum = 7
	maximum = 137
Slowest flit = 13634
Fragmentation average = 0
	minimum = 0
	maximum = 0
Injected packet rate average = 0.0481875
	minimum = 0.039 (at node 9)
	maximum = 0.061 (at node 0)
Accepted packet rate average = 0.0469375
	minimum = 0.038 (at node 6)
	maximum = 0.06 (at node 0)
Injected flit rate average = 0.0481875
	minimum = 0.039 (at node 9)
	maximum = 0.061 (at node 0)
Accepted flit rate average= 0.0469375
	minimum = 0.038 (at node 6)
	maximum = 0.06 (at node 0)
Injected packet length average = 1
Accepted packet length average = 1
Total in-flight flits = 20 (0 measured)
latency change    = 0.021535
throughput change = 0.0279627
Class 0:
Packet latency average = 23.3316
	minimum = 7
	maximum = 139
Network latency average = 23.3316
	minimum = 7
	maximum = 139
Slowest packet = 13765
Flit latency average = 23.3316
	minimum = 7
	maximum = 139
Slowest flit = 13765
Fragmentation average = 0
	minimum = 0
	maximum = 0
Injected packet rate average = 0.047375
	minimum = 0.026 (at node 9)
	maximum = 0.068 (at node 1)
Accepted packet rate average = 0.047875
	minimum = 0.028 (at node 6)
	maximum = 0.064 (at node 4)
Injected flit rate average = 0.047375
	minimum = 0.026 (at node 9)
	maximum = 0.068 (at node 1)
Accepted flit rate average= 0.047875
	minimum = 0.028 (at node 6)
	maximum = 0.064 (at node 4)
Injected packet length average = 1
Accepted packet length average = 1
Total in-flight flits = 16 (0 measured)
latency change    = 0.0257976
throughput change = 0.0195822
Warmed up ...Time used is 1500 cycles
Class 0:
Packet latency average = 26.2441
	minimum = 7
	maximum = 239
Network latency average = 25.8976
	minimum = 7
	maximum = 211
Slowest packet = 14337
Flit latency average = 25.8589
	minimum = 7
	maximum = 211
Slowest flit = 14337
Fragmentation average = 0
	minimum = 0
	maximum = 0
Injected packet rate average = 0.05125
	minimum = 0.036 (at node 7)
	maximum = 0.064 (at node 2)
Accepted packet rate average = 0.049625
	minimum = 0.036 (at node 13)
	maximum = 0.06 (at node 8)
Injected flit rate average = 0.05125
	minimum = 0.036 (at node 7)
	maximum = 0.064 (at node 2)
Accepted flit rate average= 0.049625
	minimum = 0.036 (at node 13)
	maximum = 0.06 (at node 8)
Injected packet length average = 1
Accepted packet length average = 1
Total in-flight flits = 30 (30 measured)
latency change    = 0.110977
throughput change = 0.0352645
Class 0:
Packet latency average = 31.146
	minimum = 7
	maximum = 415
Network latency average = 28.6757
	minimum = 7
	maximum = 281
Slowest packet = 14337
Flit latency average = 28.6
	minimum = 7
	maximum = 281
Slowest flit = 14638
Fragmentation average = 0
	minimum = 0
	maximum = 0
Injected packet rate average = 0.050125
	minimum = 0.04 (at node 7)
	maximum = 0.061 (at node 15)
Accepted packet rate average = 0.049375
	minimum = 0.038 (at node 13)
	maximum = 0.062 (at node 7)
Injected flit rate average = 0.050125
	minimum = 0.04 (at node 7)
	maximum = 0.061 (at node 15)
Accepted flit rate average= 0.049375
	minimum = 0.038 (at node 13)
	maximum = 0.062 (at node 7)
Injected packet length average = 1
Accepted packet length average = 1
Total in-flight flits = 30 (30 measured)
latency change    = 0.157385
throughput change = 0.00506329
Class 0:
Packet latency average = 37.9216
	minimum = 7
	maximum = 719
Network latency average = 31.5707
	minimum = 7
	maximum = 439
Slowest packet = 14337
Flit latency average = 31.4815
	minimum = 7
	maximum = 439
Slowest flit = 14890
Fragmentation average = 0
	minimum = 0
	maximum = 0
Injected packet rate average = 0.0503333
	minimum = 0.038 (at node 12)
	maximum = 0.06 (at node 13)
Accepted packet rate average = 0.0495833
	minimum = 0.0346667 (at node 3)
	maximum = 0.0606667 (at node 7)
Injected flit rate average = 0.0503333
	minimum = 0.038 (at node 12)
	maximum = 0.06 (at node 13)
Accepted flit rate average= 0.0495833
	minimum = 0.0346667 (at node 3)
	maximum = 0.0606667 (at node 7)
Injected packet length average = 1
Accepted packet length average = 1
Total in-flight flits = 37 (37 measured)
latency change    = 0.178675
throughput change = 0.00420168
Class 0:
Packet latency average = 44.0907
	minimum = 7
	maximum = 888
Network latency average = 32.4163
	minimum = 7
	maximum = 439
Slowest packet = 14337
Flit latency average = 32.3401
	minimum = 7
	maximum = 439
Slowest flit = 14890
Fragmentation average = 0
	minimum = 0
	maximum = 0
Injected packet rate average = 0.04925
	minimum = 0.037 (at node 12)
	maximum = 0.056 (at node 9)
Accepted packet rate average = 0.0490625
	minimum = 0.034 (at node 3)
	maximum = 0.0565 (at node 7)
Injected flit rate average = 0.04925
	minimum = 0.037 (at node 12)
	maximum = 0.056 (at node 9)
Accepted flit rate average= 0.0490625
	minimum = 0.034 (at node 3)
	maximum = 0.0565 (at node 7)
Injected packet length average = 1
Accepted packet length average = 1
Total in-flight flits = 23 (23 measured)
latency change    = 0.139918
throughput change = 0.0106157
Class 0:
Packet latency average = 51.2631
	minimum = 7
	maximum = 1017
Network latency average = 32.1131
	minimum = 7
	maximum = 439
Slowest packet = 14337
Flit latency average = 32.0545
	minimum = 7
	maximum = 439
Slowest flit = 14890
Fragmentation average = 0
	minimum = 0
	maximum = 0
Injected packet rate average = 0.04945
	minimum = 0.0396 (at node 12)
	maximum = 0.0584 (at node 13)
Accepted packet rate average = 0.04905
	minimum = 0.0372 (at node 3)
	maximum = 0.0576 (at node 7)
Injected flit rate average = 0.04945
	minimum = 0.0396 (at node 12)
	maximum = 0.0584 (at node 13)
Accepted flit rate average= 0.04905
	minimum = 0.0372 (at node 3)
	maximum = 0.0576 (at node 7)
Injected packet length average = 1
Accepted packet length average = 1
Total in-flight flits = 33 (33 measured)
latency change    = 0.139913
throughput change = 0.000254842
Class 0:
Packet latency average = 55.0695
	minimum = 7
	maximum = 1017
Network latency average = 31.9161
	minimum = 7
	maximum = 439
Slowest packet = 14337
Flit latency average = 31.8692
	minimum = 7
	maximum = 439
Slowest flit = 14890
Fragmentation average = 0
	minimum = 0
	maximum = 0
Injected packet rate average = 0.0498125
	minimum = 0.0403333 (at node 12)
	maximum = 0.058 (at node 13)
Accepted packet rate average = 0.0495208
	minimum = 0.0386667 (at node 3)
	maximum = 0.0576667 (at node 7)
Injected flit rate average = 0.0498125
	minimum = 0.0403333 (at node 12)
	maximum = 0.058 (at node 13)
Accepted flit rate average= 0.0495208
	minimum = 0.0386667 (at node 3)
	maximum = 0.0576667 (at node 7)
Injected packet length average = 1
Accepted packet length average = 1
Total in-flight flits = 31 (31 measured)
latency change    = 0.0691192
throughput change = 0.00950778
Class 0:
Packet latency average = 59.474
	minimum = 7
	maximum = 1054
Network latency average = 31.8438
	minimum = 7
	maximum = 439
Slowest packet = 14337
Flit latency average = 31.8036
	minimum = 7
	maximum = 439
Slowest flit = 14890
Fragmentation average = 0
	minimum = 0
	maximum = 0
Injected packet rate average = 0.0495
	minimum = 0.0434286 (at node 12)
	maximum = 0.0577143 (at node 13)
Accepted packet rate average = 0.0491071
	minimum = 0.0411429 (at node 3)
	maximum = 0.0568571 (at node 7)
Injected flit rate average = 0.0495
	minimum = 0.0434286 (at node 12)
	maximum = 0.0577143 (at node 13)
Accepted flit rate average= 0.0491071
	minimum = 0.0411429 (at node 3)
	maximum = 0.0568571 (at node 7)
Injected packet length average = 1
Accepted packet length average = 1
Total in-flight flits = 40 (40 measured)
latency change    = 0.0740587
throughput change = 0.00842424
Draining all recorded packets ...
Draining remaining packets ...
Time taken is 5970 cycles
Class 0:
Packet latency average = 23.8298
	minimum = 7
	maximum = 126
Network latency average = 23.8298
	minimum = 7
	maximum = 126
Slowest packet = 17778
Flit latency average = 23.8298
	minimum = 7
	maximum = 126
Slowest flit = 17778
Fragmentation average = 0
	minimum = 0
	maximum = 0
Injected packet rate average = 0.049
	minimum = 0.036 (at node 0)
	maximum = 0.068 (at node 6)
Accepted packet rate average = 0.047
	minimum = 0.036 (at node 0)
	maximum = 0.066 (at node 9)
Injected flit rate average = 0.049
	minimum = 0.036 (at node 0)
	maximum = 0.068 (at node 6)
Accepted flit rate average= 0.047
	minimum = 0.036 (at node 0)
	maximum = 0.066 (at node 9)
Injected packet length average = 1
Accepted packet length average = 1
Total in-flight flits = 16 (0 measured)
latency change    = 1
throughput change = 1
Class 0:
Packet latency average = 26.9922
	minimum = 7
	maximum = 195
Network latency average = 26.5776
	minimum = 7
	maximum = 195
Slowest packet = 18140
Flit latency average = 26.5776
	minimum = 7
	maximum = 195
Slowest flit = 18140
Fragmentation average = 0
	minimum = 0
	maximum = 0
Injected packet rate average = 0.048875
	minimum = 0.042 (at node 3)
	maximum = 0.061 (at node 6)
Accepted packet rate average = 0.0479375
	minimum = 0.041 (at node 3)
	maximum = 0.061 (at node 9)
Injected flit rate average = 0.048875
	minimum = 0.042 (at node 3)
	maximum = 0.061 (at node 6)
Accepted flit rate average= 0.0479375
	minimum = 0.041 (at node 3)
	maximum = 0.061 (at node 9)
Injected packet length average = 1
Accepted packet length average = 1
Total in-flight flits = 15 (0 measured)
latency change    = 0.11716
throughput change = 0.0195567
Class 0:
Packet latency average = 24.8462
	minimum = 7
	maximum = 138
Network latency average = 24.7476
	minimum = 7
	maximum = 137
Slowest packet = 18300
Flit latency average = 24.7476
	minimum = 7
	maximum = 137
Slowest flit = 18300
Fragmentation average = 0
	minimum = 0
	maximum = 0
Injected packet rate average = 0.052375
	minimum = 0.038 (at node 14)
	maximum = 0.07 (at node 11)
Accepted packet rate average = 0.052
	minimum = 0.038 (at node 11)
	maximum = 0.074 (at node 14)
Injected flit rate average = 0.052375
	minimum = 0.038 (at node 14)
	maximum = 0.07 (at node 11)
Accepted flit rate average= 0.052
	minimum = 0.038 (at node 11)
	maximum = 0.074 (at node 14)
Injected packet length average = 1
Accepted packet length average = 1
Total in-flight flits = 18 (0 measured)
latency change    = 0.0863725
throughput change = 0.078125
Warmed up ...Time used is 1500 cycles
Class 0:
Packet latency average = 28.2061
	minimum = 7
	maximum = 226
Network latency average = 27.9288
	minimum = 7
	maximum = 215
Slowest packet = 18974
Flit latency average = 28.3479
	minimum = 7
	maximum = 215
Slowest flit = 18974
Fragmentation average = 0
	minimum = 0
	maximum = 0
Injected packet rate average = 0.052125
	minimum = 0.032 (at node 4)
	maximum = 0.066 (at node 6)
Accepted packet rate average = 0.051375
	minimum = 0.032 (at node 1)
	maximum = 0.068 (at node 9)
Injected flit rate average = 0.052125
	minimum = 0.032 (at node 4)
	maximum = 0.066 (at node 6)
Accepted flit rate average= 0.051375
	minimum = 0.032 (at node 1)
	maximum = 0.068 (at node 9)
Injected packet length average = 1
Accepted packet length average = 1
Total in-flight flits = 24 (24 measured)
latency change    = 0.119121
throughput change = 0.0121655
Class 0:
Packet latency average = 30.8438
	minimum = 7
	maximum = 366
Network latency average = 30.2681
	minimum = 7
	maximum = 351
Slowest packet = 19062
Flit latency average = 30.4248
	minimum = 7
	maximum = 351
Slowest flit = 19062
Fragmentation average = 0
	minimum = 0
	maximum = 0
Injected packet rate average = 0.0520625
	minimum = 0.046 (at node 8)
	maximum = 0.062 (at node 15)
Accepted packet rate average = 0.0519375
	minimum = 0.044 (at node 3)
	maximum = 0.062 (at node 15)
Injected flit rate average = 0.0520625
	minimum = 0.046 (at node 8)
	maximum = 0.062 (at node 15)
Accepted flit rate average= 0.0519375
	minimum = 0.044 (at node 3)
	maximum = 0.062 (at node 15)
Injected packet length average = 1
Accepted packet length average = 1
Total in-flight flits = 21 (21 measured)
latency change    = 0.0855174
throughput change = 0.0108303
Class 0:
Packet latency average = 33.3083
	minimum = 7
	maximum = 392
Network latency average = 30.5194
	minimum = 7
	maximum = 351
Slowest packet = 19062
Flit latency average = 30.6214
	minimum = 7
	maximum = 351
Slowest flit = 19062
Fragmentation average = 0
	minimum = 0
	maximum = 0
Injected packet rate average = 0.0515833
	minimum = 0.0446667 (at node 6)
	maximum = 0.06 (at node 1)
Accepted packet rate average = 0.0512917
	minimum = 0.0453333 (at node 1)
	maximum = 0.0593333 (at node 4)
Injected flit rate average = 0.0515833
	minimum = 0.0446667 (at node 6)
	maximum = 0.06 (at node 1)
Accepted flit rate average= 0.0512917
	minimum = 0.0453333 (at node 1)
	maximum = 0.0593333 (at node 4)
Injected packet length average = 1
Accepted packet length average = 1
Total in-flight flits = 26 (26 measured)
latency change    = 0.0739916
throughput change = 0.0125914
Class 0:
Packet latency average = 36.3894
	minimum = 7
	maximum = 495
Network latency average = 30.6879
	minimum = 7
	maximum = 351
Slowest packet = 19062
Flit latency average = 30.7634
	minimum = 7
	maximum = 351
Slowest flit = 19062
Fragmentation average = 0
	minimum = 0
	maximum = 0
Injected packet rate average = 0.050875
	minimum = 0.043 (at node 6)
	maximum = 0.059 (at node 10)
Accepted packet rate average = 0.0507187
	minimum = 0.043 (at node 9)
	maximum = 0.059 (at node 10)
Injected flit rate average = 0.050875
	minimum = 0.043 (at node 6)
	maximum = 0.059 (at node 10)
Accepted flit rate average= 0.0507187
	minimum = 0.043 (at node 9)
	maximum = 0.059 (at node 10)
Injected packet length average = 1
Accepted packet length average = 1
Total in-flight flits = 23 (23 measured)
latency change    = 0.0846697
throughput change = 0.011296
Class 0:
Packet latency average = 35.1037
	minimum = 7
	maximum = 495
Network latency average = 30.0371
	minimum = 7
	maximum = 351
Slowest packet = 19062
Flit latency average = 30.1038
	minimum = 7
	maximum = 351
Slowest flit = 19062
Fragmentation average = 0
	minimum = 0
	maximum = 0
Injected packet rate average = 0.0505
	minimum = 0.042 (at node 6)
	maximum = 0.0564 (at node 10)
Accepted packet rate average = 0.05035
	minimum = 0.0424 (at node 9)
	maximum = 0.0564 (at node 10)
Injected flit rate average = 0.0505
	minimum = 0.042 (at node 6)
	maximum = 0.0564 (at node 10)
Accepted flit rate average= 0.05035
	minimum = 0.0424 (at node 9)
	maximum = 0.0564 (at node 10)
Injected packet length average = 1
Accepted packet length average = 1
Total in-flight flits = 25 (25 measured)
latency change    = 0.0366258
throughput change = 0.00732373
Class 0:
Packet latency average = 33.1859
	minimum = 7
	maximum = 495
Network latency average = 28.9137
	minimum = 7
	maximum = 351
Slowest packet = 19062
Flit latency average = 28.9767
	minimum = 7
	maximum = 351
Slowest flit = 19062
Fragmentation average = 0
	minimum = 0
	maximum = 0
Injected packet rate average = 0.05125
	minimum = 0.0433333 (at node 6)
	maximum = 0.056 (at node 10)
Accepted packet rate average = 0.0510417
	minimum = 0.0433333 (at node 9)
	maximum = 0.056 (at node 10)
Injected flit rate average = 0.05125
	minimum = 0.0433333 (at node 6)
	maximum = 0.056 (at node 10)
Accepted flit rate average= 0.0510417
	minimum = 0.0433333 (at node 9)
	maximum = 0.056 (at node 10)
Injected packet length average = 1
Accepted packet length average = 1
Total in-flight flits = 30 (30 measured)
latency change    = 0.0577913
throughput change = 0.013551
Class 0:
Packet latency average = 33.2703
	minimum = 7
	maximum = 495
Network latency average = 29.1262
	minimum = 7
	maximum = 351
Slowest packet = 19062
Flit latency average = 29.1788
	minimum = 7
	maximum = 351
Slowest flit = 19062
Fragmentation average = 0
	minimum = 0
	maximum = 0
Injected packet rate average = 0.05125
	minimum = 0.0462857 (at node 6)
	maximum = 0.0551429 (at node 15)
Accepted packet rate average = 0.051125
	minimum = 0.0465714 (at node 9)
	maximum = 0.0548571 (at node 11)
Injected flit rate average = 0.05125
	minimum = 0.0462857 (at node 6)
	maximum = 0.0551429 (at node 15)
Accepted flit rate average= 0.051125
	minimum = 0.0465714 (at node 9)
	maximum = 0.0548571 (at node 11)
Injected packet length average = 1
Accepted packet length average = 1
Total in-flight flits = 26 (26 measured)
latency change    = 0.0025381
throughput change = 0.00162999
Draining all recorded packets ...
Draining remaining packets ...
Time taken is 5217 cycles
Class 0:
Packet latency average = 21.6146
	minimum = 7
	maximum = 74
Network latency average = 21.6146
	minimum = 7
	maximum = 74
Slowest packet = 22031
Flit latency average = 21.6146
	minimum = 7
	maximum = 74
Slowest flit = 22031
Fragmentation average = 0
	minimum = 0
	maximum = 0
Injected packet rate average = 0.051375
	minimum = 0.03 (at node 5)
	maximum = 0.066 (at node 14)
Accepted packet rate average = 0.049625
	minimum = 0.03 (at node 5)
	maximum = 0.066 (at node 15)
Injected flit rate average = 0.051375
	minimum = 0.03 (at node 5)
	maximum = 0.066 (at node 14)
Accepted flit rate average= 0.049625
	minimum = 0.03 (at node 5)
	maximum = 0.066 (at node 15)
Injected packet length average = 1
Accepted packet length average = 1
Total in-flight flits = 14 (0 measured)
latency change    = 1
throughput change = 1
Class 0:
Packet latency average = 21.5668
	minimum = 7
	maximum = 81
Network latency average = 21.5668
	minimum = 7
	maximum = 81
Slowest packet = 22509
Flit latency average = 21.5668
	minimum = 7
	maximum = 81
Slowest flit = 22509
Fragmentation average = 0
	minimum = 0
	maximum = 0
Injected packet rate average = 0.0506875
	minimum = 0.041 (at node 0)
	maximum = 0.07 (at node 15)
Accepted packet rate average = 0.049625
	minimum = 0.04 (at node 2)
	maximum = 0.07 (at node 15)
Injected flit rate average = 0.0506875
	minimum = 0.041 (at node 0)
	maximum = 0.07 (at node 15)
Accepted flit rate average= 0.049625
	minimum = 0.04 (at node 2)
	maximum = 0.07 (at node 15)
Injected packet length average = 1
Accepted packet length average = 1
Total in-flight flits = 17 (0 measured)
latency change    = 0.00221911
throughput change = 0
Class 0:
Packet latency average = 25.414
	minimum = 7
	maximum = 106
Network latency average = 25.389
	minimum = 7
	maximum = 106
Slowest packet = 22796
Flit latency average = 25.389
	minimum = 7
	maximum = 106
Slowest flit = 22796
Fragmentation average = 0
	minimum = 0
	maximum = 0
Injected packet rate average = 0.04925
	minimum = 0.036 (at node 4)
	maximum = 0.064 (at node 2)
Accepted packet rate average = 0.050125
	minimum = 0.036 (at node 4)
	maximum = 0.064 (at node 8)
Injected flit rate average = 0.04925
	minimum = 0.036 (at node 4)
	maximum = 0.064 (at node 2)
Accepted flit rate average= 0.050125
	minimum = 0.036 (at node 4)
	maximum = 0.064 (at node 8)
Injected packet length average = 1
Accepted packet length average = 1
Total in-flight flits = 10 (0 measured)
latency change    = 0.151382
throughput change = 0.00997506
Warmed up ...Time used is 1500 cycles
Class 0:
Packet latency average = 24.6257
	minimum = 7
	maximum = 156
Network latency average = 24.5995
	minimum = 7
	maximum = 156
Slowest packet = 23228
Flit latency average = 24.6378
	minimum = 7
	maximum = 156
Slowest flit = 23228
Fragmentation average = 0
	minimum = 0
	maximum = 0
Injected packet rate average = 0.05
	minimum = 0.04 (at node 9)
	maximum = 0.068 (at node 4)
Accepted packet rate average = 0.049
	minimum = 0.038 (at node 6)
	maximum = 0.064 (at node 1)
Injected flit rate average = 0.05
	minimum = 0.04 (at node 9)
	maximum = 0.068 (at node 4)
Accepted flit rate average= 0.049
	minimum = 0.038 (at node 6)
	maximum = 0.064 (at node 1)
Injected packet length average = 1
Accepted packet length average = 1
Total in-flight flits = 18 (18 measured)
latency change    = 0.0320118
throughput change = 0.0229592
Class 0:
Packet latency average = 23.3119
	minimum = 7
	maximum = 156
Network latency average = 23.2998
	minimum = 7
	maximum = 156
Slowest packet = 23228
Flit latency average = 23.3333
	minimum = 7
	maximum = 156
Slowest flit = 23228
Fragmentation average = 0
	minimum = 0
	maximum = 0
Injected packet rate average = 0.053
	minimum = 0.037 (at node 14)
	maximum = 0.067 (at node 15)
Accepted packet rate average = 0.052125
	minimum = 0.037 (at node 11)
	maximum = 0.067 (at node 14)
Injected flit rate average = 0.053
	minimum = 0.037 (at node 14)
	maximum = 0.067 (at node 15)
Accepted flit rate average= 0.052125
	minimum = 0.037 (at node 11)
	maximum = 0.067 (at node 14)
Injected packet length average = 1
Accepted packet length average = 1
Total in-flight flits = 24 (24 measured)
latency change    = 0.0563558
throughput change = 0.059952
Class 0:
Packet latency average = 25.5686
	minimum = 7
	maximum = 222
Network latency average = 25.3536
	minimum = 7
	maximum = 221
Slowest packet = 24062
Flit latency average = 25.3596
	minimum = 7
	maximum = 221
Slowest flit = 24062
Fragmentation average = 0
	minimum = 0
	maximum = 0
Injected packet rate average = 0.0532917
	minimum = 0.0393333 (at node 14)
	maximum = 0.0673333 (at node 11)
Accepted packet rate average = 0.052375
	minimum = 0.038 (at node 11)
	maximum = 0.0653333 (at node 1)
Injected flit rate average = 0.0532917
	minimum = 0.0393333 (at node 14)
	maximum = 0.0673333 (at node 11)
Accepted flit rate average= 0.052375
	minimum = 0.038 (at node 11)
	maximum = 0.0653333 (at node 1)
Injected packet length average = 1
Accepted packet length average = 1
Total in-flight flits = 33 (33 measured)
latency change    = 0.0882596
throughput change = 0.00477327
Class 0:
Packet latency average = 28.3266
	minimum = 7
	maximum = 427
Network latency average = 26.4383
	minimum = 7
	maximum = 299
Slowest packet = 24062
Flit latency average = 26.4363
	minimum = 7
	maximum = 299
Slowest flit = 24382
Fragmentation average = 0
	minimum = 0
	maximum = 0
Injected packet rate average = 0.0535625
	minimum = 0.0425 (at node 14)
	maximum = 0.0635 (at node 11)
Accepted packet rate average = 0.0532188
	minimum = 0.0425 (at node 11)
	maximum = 0.063 (at node 14)
Injected flit rate average = 0.0535625
	minimum = 0.0425 (at node 14)
	maximum = 0.0635 (at node 11)
Accepted flit rate average= 0.0532188
	minimum = 0.0425 (at node 11)
	maximum = 0.063 (at node 14)
Injected packet length average = 1
Accepted packet length average = 1
Total in-flight flits = 21 (21 measured)
latency change    = 0.0973668
throughput change = 0.0158544
Class 0:
Packet latency average = 31.4559
	minimum = 7
	maximum = 449
Network latency average = 27.3755
	minimum = 7
	maximum = 299
Slowest packet = 24062
Flit latency average = 27.3694
	minimum = 7
	maximum = 299
Slowest flit = 24382
Fragmentation average = 0
	minimum = 0
	maximum = 0
Injected packet rate average = 0.05265
	minimum = 0.0412 (at node 14)
	maximum = 0.0624 (at node 11)
Accepted packet rate average = 0.05245
	minimum = 0.0412 (at node 11)
	maximum = 0.0628 (at node 14)
Injected flit rate average = 0.05265
	minimum = 0.0412 (at node 14)
	maximum = 0.0624 (at node 11)
Accepted flit rate average= 0.05245
	minimum = 0.0412 (at node 11)
	maximum = 0.0628 (at node 14)
Injected packet length average = 1
Accepted packet length average = 1
Total in-flight flits = 19 (19 measured)
latency change    = 0.099482
throughput change = 0.0146568
Class 0:
Packet latency average = 34.3253
	minimum = 7
	maximum = 555
Network latency average = 28.0584
	minimum = 7
	maximum = 299
Slowest packet = 24062
Flit latency average = 28.0506
	minimum = 7
	maximum = 299
Slowest flit = 24382
Fragmentation average = 0
	minimum = 0
	maximum = 0
Injected packet rate average = 0.0522292
	minimum = 0.044 (at node 14)
	maximum = 0.0613333 (at node 11)
Accepted packet rate average = 0.0518958
	minimum = 0.043 (at node 11)
	maximum = 0.0603333 (at node 14)
Injected flit rate average = 0.0522292
	minimum = 0.044 (at node 14)
	maximum = 0.0613333 (at node 11)
Accepted flit rate average= 0.0518958
	minimum = 0.043 (at node 11)
	maximum = 0.0603333 (at node 14)
Injected packet length average = 1
Accepted packet length average = 1
Total in-flight flits = 26 (26 measured)
latency change    = 0.0835924
throughput change = 0.0106784
Class 0:
Packet latency average = 35.4348
	minimum = 7
	maximum = 555
Network latency average = 28.3597
	minimum = 7
	maximum = 303
Slowest packet = 24062
Flit latency average = 28.3519
	minimum = 7
	maximum = 303
Slowest flit = 25569
Fragmentation average = 0
	minimum = 0
	maximum = 0
Injected packet rate average = 0.0519643
	minimum = 0.0425714 (at node 14)
	maximum = 0.06 (at node 11)
Accepted packet rate average = 0.0518036
	minimum = 0.0425714 (at node 11)
	maximum = 0.0602857 (at node 14)
Injected flit rate average = 0.0519643
	minimum = 0.0425714 (at node 14)
	maximum = 0.06 (at node 11)
Accepted flit rate average= 0.0518036
	minimum = 0.0425714 (at node 11)
	maximum = 0.0602857 (at node 14)
Injected packet length average = 1
Accepted packet length average = 1
Total in-flight flits = 20 (20 measured)
latency change    = 0.0313118
throughput change = 0.001781
Draining all recorded packets ...
Draining remaining packets ...
Time taken is 5627 cycles
Class 0:
Packet latency average = 22.088
	minimum = 7
	maximum = 109
Network latency average = 22.088
	minimum = 7
	maximum = 109
Slowest packet = 26574
Flit latency average = 22.088
	minimum = 7
	maximum = 109
Slowest flit = 26574
Fragmentation average = 0
	minimum = 0
	maximum = 0
Injected packet rate average = 0.047875
	minimum = 0.034 (at node 12)
	maximum = 0.062 (at node 2)
Accepted packet rate average = 0.046875
	minimum = 0.034 (at node 3)
	maximum = 0.062 (at node 9)
Injected flit rate average = 0.047875
	minimum = 0.034 (at node 12)
	maximum = 0.062 (at node 2)
Accepted flit rate average= 0.046875
	minimum = 0.034 (at node 3)
	maximum = 0.062 (at node 9)
Injected packet length average = 1
Accepted packet length average = 1
Total in-flight flits = 8 (0 measured)
latency change    = 1
throughput change = 1
Class 0:
Packet latency average = 25.7663
	minimum = 7
	maximum = 301
Network latency average = 25.539
	minimum = 7
	maximum = 301
Slowest packet = 26860
Flit latency average = 25.539
	minimum = 7
	maximum = 301
Slowest flit = 26860
Fragmentation average = 0
	minimum = 0
	maximum = 0
Injected packet rate average = 0.0509375
	minimum = 0.038 (at node 12)
	maximum = 0.063 (at node 15)
Accepted packet rate average = 0.0489375
	minimum = 0.032 (at node 3)
	maximum = 0.062 (at node 15)
Injected flit rate average = 0.0509375
	minimum = 0.038 (at node 12)
	maximum = 0.063 (at node 15)
Accepted flit rate average= 0.0489375
	minimum = 0.032 (at node 3)
	maximum = 0.062 (at node 15)
Injected packet length average = 1
Accepted packet length average = 1
Total in-flight flits = 33 (0 measured)
latency change    = 0.142756
throughput change = 0.0421456
Class 0:
Packet latency average = 38.4574
	minimum = 7
	maximum = 344
Network latency average = 31.5572
	minimum = 7
	maximum = 301
Slowest packet = 26966
Flit latency average = 31.5572
	minimum = 7
	maximum = 301
Slowest flit = 26966
Fragmentation average = 0
	minimum = 0
	maximum = 0
Injected packet rate average = 0.05
	minimum = 0.04 (at node 5)
	maximum = 0.078 (at node 4)
Accepted packet rate average = 0.051375
	minimum = 0.04 (at node 5)
	maximum = 0.078 (at node 1)
Injected flit rate average = 0.05
	minimum = 0.04 (at node 5)
	maximum = 0.078 (at node 4)
Accepted flit rate average= 0.051375
	minimum = 0.04 (at node 5)
	maximum = 0.078 (at node 1)
Injected packet length average = 1
Accepted packet length average = 1
Total in-flight flits = 21 (0 measured)
latency change    = 0.330005
throughput change = 0.0474453
Warmed up ...Time used is 1500 cycles
Class 0:
Packet latency average = 28.5483
	minimum = 7
	maximum = 205
Network latency average = 27.7702
	minimum = 7
	maximum = 179
Slowest packet = 27635
Flit latency average = 28.5941
	minimum = 7
	maximum = 179
Slowest flit = 27635
Fragmentation average = 0
	minimum = 0
	maximum = 0
Injected packet rate average = 0.05125
	minimum = 0.034 (at node 14)
	maximum = 0.068 (at node 7)
Accepted packet rate average = 0.0505
	minimum = 0.036 (at node 7)
	maximum = 0.066 (at node 13)
Injected flit rate average = 0.05125
	minimum = 0.034 (at node 14)
	maximum = 0.068 (at node 7)
Accepted flit rate average= 0.0505
	minimum = 0.036 (at node 7)
	maximum = 0.066 (at node 13)
Injected packet length average = 1
Accepted packet length average = 1
Total in-flight flits = 27 (27 measured)
latency change    = 0.3471
throughput change = 0.0173267
Class 0:
Packet latency average = 30.7723
	minimum = 7
	maximum = 280
Network latency average = 29.4398
	minimum = 7
	maximum = 280
Slowest packet = 27892
Flit latency average = 29.8149
	minimum = 7
	maximum = 280
Slowest flit = 27892
Fragmentation average = 0
	minimum = 0
	maximum = 0
Injected packet rate average = 0.0499375
	minimum = 0.038 (at node 14)
	maximum = 0.062 (at node 7)
Accepted packet rate average = 0.049625
	minimum = 0.04 (at node 7)
	maximum = 0.062 (at node 1)
Injected flit rate average = 0.0499375
	minimum = 0.038 (at node 14)
	maximum = 0.062 (at node 7)
Accepted flit rate average= 0.049625
	minimum = 0.04 (at node 7)
	maximum = 0.062 (at node 1)
Injected packet length average = 1
Accepted packet length average = 1
Total in-flight flits = 27 (27 measured)
latency change    = 0.0722732
throughput change = 0.0176322
Class 0:
Packet latency average = 30.8044
	minimum = 7
	maximum = 280
Network latency average = 29.5441
	minimum = 7
	maximum = 280
Slowest packet = 27892
Flit latency average = 29.788
	minimum = 7
	maximum = 280
Slowest flit = 27892
Fragmentation average = 0
	minimum = 0
	maximum = 0
Injected packet rate average = 0.050625
	minimum = 0.04 (at node 15)
	maximum = 0.0606667 (at node 4)
Accepted packet rate average = 0.0505
	minimum = 0.04 (at node 15)
	maximum = 0.0606667 (at node 1)
Injected flit rate average = 0.050625
	minimum = 0.04 (at node 15)
	maximum = 0.0606667 (at node 4)
Accepted flit rate average= 0.0505
	minimum = 0.04 (at node 15)
	maximum = 0.0606667 (at node 1)
Injected packet length average = 1
Accepted packet length average = 1
Total in-flight flits = 24 (24 measured)
latency change    = 0.00104045
throughput change = 0.0173267
Class 0:
Packet latency average = 29.6392
	minimum = 7
	maximum = 280
Network latency average = 28.6892
	minimum = 7
	maximum = 280
Slowest packet = 27892
Flit latency average = 28.8851
	minimum = 7
	maximum = 280
Slowest flit = 27892
Fragmentation average = 0
	minimum = 0
	maximum = 0
Injected packet rate average = 0.050125
	minimum = 0.0435 (at node 14)
	maximum = 0.058 (at node 8)
Accepted packet rate average = 0.0500312
	minimum = 0.044 (at node 11)
	maximum = 0.0565 (at node 1)
Injected flit rate average = 0.050125
	minimum = 0.0435 (at node 14)
	maximum = 0.058 (at node 8)
Accepted flit rate average= 0.0500312
	minimum = 0.044 (at node 11)
	maximum = 0.0565 (at node 1)
Injected packet length average = 1
Accepted packet length average = 1
Total in-flight flits = 25 (25 measured)
latency change    = 0.0393102
throughput change = 0.00936914
Class 0:
Packet latency average = 30.076
	minimum = 7
	maximum = 280
Network latency average = 28.3891
	minimum = 7
	maximum = 280
Slowest packet = 27892
Flit latency average = 28.5505
	minimum = 7
	maximum = 280
Slowest flit = 27892
Fragmentation average = 0
	minimum = 0
	maximum = 0
Injected packet rate average = 0.049575
	minimum = 0.0432 (at node 15)
	maximum = 0.0548 (at node 6)
Accepted packet rate average = 0.04955
	minimum = 0.0428 (at node 15)
	maximum = 0.0552 (at node 9)
Injected flit rate average = 0.049575
	minimum = 0.0432 (at node 15)
	maximum = 0.0548 (at node 6)
Accepted flit rate average= 0.04955
	minimum = 0.0428 (at node 15)
	maximum = 0.0552 (at node 9)
Injected packet length average = 1
Accepted packet length average = 1
Total in-flight flits = 22 (22 measured)
latency change    = 0.0145213
throughput change = 0.00971241
Draining all recorded packets ...
Draining remaining packets ...
Time taken is 4095 cycles
Class 0:
Packet latency average = 22.8737
	minimum = 7
	maximum = 142
Network latency average = 22.8737
	minimum = 7
	maximum = 142
Slowest packet = 29715
Flit latency average = 22.8737
	minimum = 7
	maximum = 142
Slowest flit = 29715
Fragmentation average = 0
	minimum = 0
	maximum = 0
Injected packet rate average = 0.049875
	minimum = 0.032 (at node 15)
	maximum = 0.072 (at node 10)
Accepted packet rate average = 0.0475
	minimum = 0.028 (at node 2)
	maximum = 0.07 (at node 10)
Injected flit rate average = 0.049875
	minimum = 0.032 (at node 15)
	maximum = 0.072 (at node 10)
Accepted flit rate average= 0.0475
	minimum = 0.028 (at node 2)
	maximum = 0.07 (at node 10)
Injected packet length average = 1
Accepted packet length average = 1
Total in-flight flits = 19 (0 measured)
latency change    = 1
throughput change = 1
Class 0:
Packet latency average = 23.1919
	minimum = 7
	maximum = 142
Network latency average = 23.1919
	minimum = 7
	maximum = 142
Slowest packet = 29715
Flit latency average = 23.1919
	minimum = 7
	maximum = 142
Slowest flit = 29715
Fragmentation average = 0
	minimum = 0
	maximum = 0
Injected packet rate average = 0.0491875
	minimum = 0.043 (at node 0)
	maximum = 0.06 (at node 10)
Accepted packet rate average = 0.0475625
	minimum = 0.038 (at node 2)
	maximum = 0.06 (at node 10)
Injected flit rate average = 0.0491875
	minimum = 0.043 (at node 0)
	maximum = 0.06 (at node 10)
Accepted flit rate average= 0.0475625
	minimum = 0.038 (at node 2)
	maximum = 0.06 (at node 10)
Injected packet length average = 1
Accepted packet length average = 1
Total in-flight flits = 26 (0 measured)
latency change    = 0.013719
throughput change = 0.00131406
Class 0:
Packet latency average = 34.1722
	minimum = 7
	maximum = 324
Network latency average = 29.581
	minimum = 7
	maximum = 265
Slowest packet = 30350
Flit latency average = 29.581
	minimum = 7
	maximum = 265
Slowest flit = 30350
Fragmentation average = 0
	minimum = 0
	maximum = 0
Injected packet rate average = 0.05
	minimum = 0.038 (at node 15)
	maximum = 0.066 (at node 11)
Accepted packet rate average = 0.048625
	minimum = 0.036 (at node 12)
	maximum = 0.066 (at node 14)
Injected flit rate average = 0.05
	minimum = 0.038 (at node 15)
	maximum = 0.066 (at node 11)
Accepted flit rate average= 0.048625
	minimum = 0.036 (at node 12)
	maximum = 0.066 (at node 14)
Injected packet length average = 1
Accepted packet length average = 1
Total in-flight flits = 38 (0 measured)
latency change    = 0.321325
throughput change = 0.0218509
Warmed up ...Time used is 1500 cycles
Class 0:
Packet latency average = 34.1793
	minimum = 7
	maximum = 476
Network latency average = 28.7507
	minimum = 7
	maximum = 359
Slowest packet = 30800
Flit latency average = 32.7949
	minimum = 7
	maximum = 359
Slowest flit = 30850
Fragmentation average = 0
	minimum = 0
	maximum = 0
Injected packet rate average = 0.048375
	minimum = 0.034 (at node 4)
	maximum = 0.064 (at node 10)
Accepted packet rate average = 0.049375
	minimum = 0.034 (at node 1)
	maximum = 0.078 (at node 7)
Injected flit rate average = 0.048375
	minimum = 0.034 (at node 4)
	maximum = 0.064 (at node 10)
Accepted flit rate average= 0.049375
	minimum = 0.034 (at node 1)
	maximum = 0.078 (at node 7)
Injected packet length average = 1
Accepted packet length average = 1
Total in-flight flits = 30 (30 measured)
latency change    = 0.000205832
throughput change = 0.0151899
Class 0:
Packet latency average = 47.0145
	minimum = 7
	maximum = 603
Network latency average = 31.8013
	minimum = 7
	maximum = 421
Slowest packet = 30800
Flit latency average = 33.6579
	minimum = 7
	maximum = 421
Slowest flit = 30880
Fragmentation average = 0
	minimum = 0
	maximum = 0
Injected packet rate average = 0.0490625
	minimum = 0.041 (at node 4)
	maximum = 0.061 (at node 13)
Accepted packet rate average = 0.049875
	minimum = 0.04 (at node 1)
	maximum = 0.068 (at node 7)
Injected flit rate average = 0.0490625
	minimum = 0.041 (at node 4)
	maximum = 0.061 (at node 13)
Accepted flit rate average= 0.049875
	minimum = 0.04 (at node 1)
	maximum = 0.068 (at node 7)
Injected packet length average = 1
Accepted packet length average = 1
Total in-flight flits = 25 (25 measured)
latency change    = 0.273005
throughput change = 0.0100251
Class 0:
Packet latency average = 43.5231
	minimum = 7
	maximum = 603
Network latency average = 31.3568
	minimum = 7
	maximum = 421
Slowest packet = 30800
Flit latency average = 32.6463
	minimum = 7
	maximum = 421
Slowest flit = 30880
Fragmentation average = 0
	minimum = 0
	maximum = 0
Injected packet rate average = 0.048
	minimum = 0.0393333 (at node 14)
	maximum = 0.0553333 (at node 13)
Accepted packet rate average = 0.0484167
	minimum = 0.0386667 (at node 11)
	maximum = 0.0606667 (at node 7)
Injected flit rate average = 0.048
	minimum = 0.0393333 (at node 14)
	maximum = 0.0553333 (at node 13)
Accepted flit rate average= 0.0484167
	minimum = 0.0386667 (at node 11)
	maximum = 0.0606667 (at node 7)
Injected packet length average = 1
Accepted packet length average = 1
Total in-flight flits = 28 (28 measured)
latency change    = 0.0802181
throughput change = 0.0301205
Class 0:
Packet latency average = 39.5471
	minimum = 7
	maximum = 603
Network latency average = 30.3111
	minimum = 7
	maximum = 421
Slowest packet = 30800
Flit latency average = 31.3003
	minimum = 7
	maximum = 421
Slowest flit = 30880
Fragmentation average = 0
	minimum = 0
	maximum = 0
Injected packet rate average = 0.0481875
	minimum = 0.0405 (at node 8)
	maximum = 0.0565 (at node 13)
Accepted packet rate average = 0.0485937
	minimum = 0.041 (at node 13)
	maximum = 0.0585 (at node 7)
Injected flit rate average = 0.0481875
	minimum = 0.0405 (at node 8)
	maximum = 0.0565 (at node 13)
Accepted flit rate average= 0.0485937
	minimum = 0.041 (at node 13)
	maximum = 0.0585 (at node 7)
Injected packet length average = 1
Accepted packet length average = 1
Total in-flight flits = 24 (24 measured)
latency change    = 0.100538
throughput change = 0.00364416
Class 0:
Packet latency average = 37.3921
	minimum = 7
	maximum = 603
Network latency average = 29.9181
	minimum = 7
	maximum = 421
Slowest packet = 30800
Flit latency average = 30.7174
	minimum = 7
	maximum = 421
Slowest flit = 30880
Fragmentation average = 0
	minimum = 0
	maximum = 0
Injected packet rate average = 0.04845
	minimum = 0.0428 (at node 8)
	maximum = 0.056 (at node 13)
Accepted packet rate average = 0.048575
	minimum = 0.0416 (at node 2)
	maximum = 0.058 (at node 7)
Injected flit rate average = 0.04845
	minimum = 0.0428 (at node 8)
	maximum = 0.056 (at node 13)
Accepted flit rate average= 0.048575
	minimum = 0.0416 (at node 2)
	maximum = 0.058 (at node 7)
Injected packet length average = 1
Accepted packet length average = 1
Total in-flight flits = 34 (34 measured)
latency change    = 0.0576326
throughput change = 0.000386001
Class 0:
Packet latency average = 36.314
	minimum = 7
	maximum = 603
Network latency average = 29.8143
	minimum = 7
	maximum = 421
Slowest packet = 30800
Flit latency average = 30.476
	minimum = 7
	maximum = 421
Slowest flit = 30880
Fragmentation average = 0
	minimum = 0
	maximum = 0
Injected packet rate average = 0.0486458
	minimum = 0.0433333 (at node 2)
	maximum = 0.055 (at node 0)
Accepted packet rate average = 0.0490208
	minimum = 0.0443333 (at node 8)
	maximum = 0.055 (at node 0)
Injected flit rate average = 0.0486458
	minimum = 0.0433333 (at node 2)
	maximum = 0.055 (at node 0)
Accepted flit rate average= 0.0490208
	minimum = 0.0443333 (at node 8)
	maximum = 0.055 (at node 0)
Injected packet length average = 1
Accepted packet length average = 1
Total in-flight flits = 19 (19 measured)
latency change    = 0.0296879
throughput change = 0.00909477
Class 0:
Packet latency average = 34.3802
	minimum = 7
	maximum = 603
Network latency average = 28.8314
	minimum = 7
	maximum = 421
Slowest packet = 30800
Flit latency average = 29.4102
	minimum = 7
	maximum = 421
Slowest flit = 30880
Fragmentation average = 0
	minimum = 0
	maximum = 0
Injected packet rate average = 0.0490357
	minimum = 0.0422857 (at node 2)
	maximum = 0.0565714 (at node 0)
Accepted packet rate average = 0.0491964
	minimum = 0.0437143 (at node 8)
	maximum = 0.0565714 (at node 0)
Injected flit rate average = 0.0490357
	minimum = 0.0422857 (at node 2)
	maximum = 0.0565714 (at node 0)
Accepted flit rate average= 0.0491964
	minimum = 0.0437143 (at node 8)
	maximum = 0.0565714 (at node 0)
Injected packet length average = 1
Accepted packet length average = 1
Total in-flight flits = 29 (29 measured)
latency change    = 0.0562487
throughput change = 0.00356927
Draining all recorded packets ...
Draining remaining packets ...
Time taken is 5552 cycles
Class 0:
Packet latency average = 22.4377
	minimum = 7
	maximum = 114
Network latency average = 22.41
	minimum = 7
	maximum = 114
Slowest packet = 34140
Flit latency average = 22.41
	minimum = 7
	maximum = 114
Slowest flit = 34140
Fragmentation average = 0
	minimum = 0
	maximum = 0
Injected packet rate average = 0.046625
	minimum = 0.032 (at node 10)
	maximum = 0.064 (at node 4)
Accepted packet rate average = 0.045125
	minimum = 0.032 (at node 2)
	maximum = 0.06 (at node 1)
Injected flit rate average = 0.046625
	minimum = 0.032 (at node 10)
	maximum = 0.064 (at node 4)
Accepted flit rate average= 0.045125
	minimum = 0.032 (at node 2)
	maximum = 0.06 (at node 1)
Injected packet length average = 1
Accepted packet length average = 1
Total in-flight flits = 12 (0 measured)
latency change    = 1
throughput change = 1
Class 0:
Packet latency average = 21.5603
	minimum = 7
	maximum = 114
Network latency average = 21.5469
	minimum = 7
	maximum = 114
Slowest packet = 34140
Flit latency average = 21.5469
	minimum = 7
	maximum = 114
Slowest flit = 34140
Fragmentation average = 0
	minimum = 0
	maximum = 0
Injected packet rate average = 0.0476875
	minimum = 0.04 (at node 5)
	maximum = 0.056 (at node 1)
Accepted packet rate average = 0.046625
	minimum = 0.038 (at node 2)
	maximum = 0.056 (at node 4)
Injected flit rate average = 0.0476875
	minimum = 0.04 (at node 5)
	maximum = 0.056 (at node 1)
Accepted flit rate average= 0.046625
	minimum = 0.038 (at node 2)
	maximum = 0.056 (at node 4)
Injected packet length average = 1
Accepted packet length average = 1
Total in-flight flits = 17 (0 measured)
latency change    = 0.0406929
throughput change = 0.0321716
Class 0:
Packet latency average = 24.1168
	minimum = 7
	maximum = 150
Network latency average = 24.1051
	minimum = 7
	maximum = 150
Slowest packet = 34882
Flit latency average = 24.1051
	minimum = 7
	maximum = 150
Slowest flit = 34882
Fragmentation average = 0
	minimum = 0
	maximum = 0
Injected packet rate average = 0.054875
	minimum = 0.042 (at node 7)
	maximum = 0.072 (at node 15)
Accepted packet rate average = 0.0535
	minimum = 0.042 (at node 13)
	maximum = 0.07 (at node 15)
Injected flit rate average = 0.054875
	minimum = 0.042 (at node 7)
	maximum = 0.072 (at node 15)
Accepted flit rate average= 0.0535
	minimum = 0.042 (at node 13)
	maximum = 0.07 (at node 15)
Injected packet length average = 1
Accepted packet length average = 1
Total in-flight flits = 28 (0 measured)
latency change    = 0.106005
throughput change = 0.128505
Warmed up ...Time used is 1500 cycles
Class 0:
Packet latency average = 27.2818
	minimum = 7
	maximum = 182
Network latency average = 27.0136
	minimum = 7
	maximum = 182
Slowest packet = 35293
Flit latency average = 30.1259
	minimum = 7
	maximum = 182
Slowest flit = 35293
Fragmentation average = 0
	minimum = 0
	maximum = 0
Injected packet rate average = 0.048
	minimum = 0.038 (at node 11)
	maximum = 0.058 (at node 5)
Accepted packet rate average = 0.049625
	minimum = 0.04 (at node 4)
	maximum = 0.066 (at node 7)
Injected flit rate average = 0.048
	minimum = 0.038 (at node 11)
	maximum = 0.058 (at node 5)
Accepted flit rate average= 0.049625
	minimum = 0.04 (at node 4)
	maximum = 0.066 (at node 7)
Injected packet length average = 1
Accepted packet length average = 1
Total in-flight flits = 15 (15 measured)
latency change    = 0.116012
throughput change = 0.0780856
Class 0:
Packet latency average = 27.0456
	minimum = 7
	maximum = 182
Network latency average = 26.4089
	minimum = 7
	maximum = 182
Slowest packet = 35293
Flit latency average = 27.9824
	minimum = 7
	maximum = 182
Slowest flit = 35293
Fragmentation average = 0
	minimum = 0
	maximum = 0
Injected packet rate average = 0.049125
	minimum = 0.039 (at node 2)
	maximum = 0.059 (at node 5)
Accepted packet rate average = 0.04975
	minimum = 0.038 (at node 8)
	maximum = 0.06 (at node 5)
Injected flit rate average = 0.049125
	minimum = 0.039 (at node 2)
	maximum = 0.059 (at node 5)
Accepted flit rate average= 0.04975
	minimum = 0.038 (at node 8)
	maximum = 0.06 (at node 5)
Injected packet length average = 1
Accepted packet length average = 1
Total in-flight flits = 18 (18 measured)
latency change    = 0.00873599
throughput change = 0.00251256
Class 0:
Packet latency average = 26.7632
	minimum = 7
	maximum = 195
Network latency average = 26.3073
	minimum = 7
	maximum = 195
Slowest packet = 36018
Flit latency average = 27.3483
	minimum = 7
	maximum = 195
Slowest flit = 36018
Fragmentation average = 0
	minimum = 0
	maximum = 0
Injected packet rate average = 0.0500417
	minimum = 0.0426667 (at node 2)
	maximum = 0.0593333 (at node 5)
Accepted packet rate average = 0.05025
	minimum = 0.0433333 (at node 8)
	maximum = 0.0593333 (at node 5)
Injected flit rate average = 0.0500417
	minimum = 0.0426667 (at node 2)
	maximum = 0.0593333 (at node 5)
Accepted flit rate average= 0.05025
	minimum = 0.0433333 (at node 8)
	maximum = 0.0593333 (at node 5)
Injected packet length average = 1
Accepted packet length average = 1
Total in-flight flits = 23 (23 measured)
latency change    = 0.0105524
throughput change = 0.00995025
Class 0:
Packet latency average = 27.8513
	minimum = 7
	maximum = 229
Network latency average = 27.3665
	minimum = 7
	maximum = 229
Slowest packet = 36360
Flit latency average = 28.1287
	minimum = 7
	maximum = 229
Slowest flit = 36360
Fragmentation average = 0
	minimum = 0
	maximum = 0
Injected packet rate average = 0.050375
	minimum = 0.043 (at node 4)
	maximum = 0.0585 (at node 5)
Accepted packet rate average = 0.05025
	minimum = 0.043 (at node 1)
	maximum = 0.059 (at node 5)
Injected flit rate average = 0.050375
	minimum = 0.043 (at node 4)
	maximum = 0.0585 (at node 5)
Accepted flit rate average= 0.05025
	minimum = 0.043 (at node 1)
	maximum = 0.059 (at node 5)
Injected packet length average = 1
Accepted packet length average = 1
Total in-flight flits = 34 (34 measured)
latency change    = 0.0390685
throughput change = 0
Draining all recorded packets ...
Draining remaining packets ...
Time taken is 3861 cycles
Class 0:
Packet latency average = 19.6209
	minimum = 7
	maximum = 73
Network latency average = 19.6209
	minimum = 7
	maximum = 73
Slowest packet = 37160
Flit latency average = 19.6209
	minimum = 7
	maximum = 73
Slowest flit = 37160
Fragmentation average = 0
	minimum = 0
	maximum = 0
Injected packet rate average = 0.049
	minimum = 0.032 (at node 2)
	maximum = 0.06 (at node 15)
Accepted packet rate average = 0.0455
	minimum = 0.028 (at node 3)
	maximum = 0.06 (at node 15)
Injected flit rate average = 0.049
	minimum = 0.032 (at node 2)
	maximum = 0.06 (at node 15)
Accepted flit rate average= 0.0455
	minimum = 0.028 (at node 3)
	maximum = 0.06 (at node 15)
Injected packet length average = 1
Accepted packet length average = 1
Total in-flight flits = 28 (0 measured)
latency change    = 1
throughput change = 1
Class 0:
Packet latency average = 25.9769
	minimum = 7
	maximum = 292
Network latency average = 25.8204
	minimum = 7
	maximum = 253
Slowest packet = 37432
Flit latency average = 25.8204
	minimum = 7
	maximum = 253
Slowest flit = 37432
Fragmentation average = 0
	minimum = 0
	maximum = 0
Injected packet rate average = 0.047375
	minimum = 0.037 (at node 5)
	maximum = 0.057 (at node 13)
Accepted packet rate average = 0.0459375
	minimum = 0.034 (at node 3)
	maximum = 0.055 (at node 7)
Injected flit rate average = 0.047375
	minimum = 0.037 (at node 5)
	maximum = 0.057 (at node 13)
Accepted flit rate average= 0.0459375
	minimum = 0.034 (at node 3)
	maximum = 0.055 (at node 7)
Injected packet length average = 1
Accepted packet length average = 1
Total in-flight flits = 24 (0 measured)
latency change    = 0.244679
throughput change = 0.00952381
Class 0:
Packet latency average = 32.9149
	minimum = 7
	maximum = 263
Network latency average = 29.1126
	minimum = 7
	maximum = 249
Slowest packet = 37499
Flit latency average = 29.1126
	minimum = 7
	maximum = 249
Slowest flit = 37499
Fragmentation average = 0
	minimum = 0
	maximum = 0
Injected packet rate average = 0.054
	minimum = 0.032 (at node 13)
	maximum = 0.07 (at node 5)
Accepted packet rate average = 0.054375
	minimum = 0.036 (at node 7)
	maximum = 0.07 (at node 5)
Injected flit rate average = 0.054
	minimum = 0.032 (at node 13)
	maximum = 0.07 (at node 5)
Accepted flit rate average= 0.054375
	minimum = 0.036 (at node 7)
	maximum = 0.07 (at node 5)
Injected packet length average = 1
Accepted packet length average = 1
Total in-flight flits = 20 (0 measured)
latency change    = 0.210788
throughput change = 0.155172
Warmed up ...Time used is 1500 cycles
Class 0:
Packet latency average = 25.4393
	minimum = 7
	maximum = 143
Network latency average = 25.4005
	minimum = 7
	maximum = 143
Slowest packet = 38341
Flit latency average = 26.1081
	minimum = 7
	maximum = 143
Slowest flit = 38341
Fragmentation average = 0
	minimum = 0
	maximum = 0
Injected packet rate average = 0.051625
	minimum = 0.036 (at node 0)
	maximum = 0.066 (at node 2)
Accepted packet rate average = 0.050875
	minimum = 0.036 (at node 0)
	maximum = 0.064 (at node 8)
Injected flit rate average = 0.051625
	minimum = 0.036 (at node 0)
	maximum = 0.066 (at node 2)
Accepted flit rate average= 0.050875
	minimum = 0.036 (at node 0)
	maximum = 0.064 (at node 8)
Injected packet length average = 1
Accepted packet length average = 1
Total in-flight flits = 27 (27 measured)
latency change    = 0.293863
throughput change = 0.0687961
Class 0:
Packet latency average = 25.5863
	minimum = 7
	maximum = 221
Network latency average = 25.4384
	minimum = 7
	maximum = 221
Slowest packet = 38369
Flit latency average = 25.8015
	minimum = 7
	maximum = 221
Slowest flit = 38369
Fragmentation average = 0
	minimum = 0
	maximum = 0
Injected packet rate average = 0.0495
	minimum = 0.037 (at node 0)
	maximum = 0.061 (at node 6)
Accepted packet rate average = 0.0494375
	minimum = 0.037 (at node 0)
	maximum = 0.063 (at node 9)
Injected flit rate average = 0.0495
	minimum = 0.037 (at node 0)
	maximum = 0.061 (at node 6)
Accepted flit rate average= 0.0494375
	minimum = 0.037 (at node 0)
	maximum = 0.063 (at node 9)
Injected packet length average = 1
Accepted packet length average = 1
Total in-flight flits = 21 (21 measured)
latency change    = 0.0057443
throughput change = 0.0290771
Class 0:
Packet latency average = 25.2677
	minimum = 7
	maximum = 221
Network latency average = 25.1477
	minimum = 7
	maximum = 221
Slowest packet = 38369
Flit latency average = 25.3964
	minimum = 7
	maximum = 221
Slowest flit = 38369
Fragmentation average = 0
	minimum = 0
	maximum = 0
Injected packet rate average = 0.0494583
	minimum = 0.0353333 (at node 0)
	maximum = 0.0633333 (at node 6)
Accepted packet rate average = 0.0490833
	minimum = 0.0353333 (at node 0)
	maximum = 0.0646667 (at node 9)
Injected flit rate average = 0.0494583
	minimum = 0.0353333 (at node 0)
	maximum = 0.0633333 (at node 6)
Accepted flit rate average= 0.0490833
	minimum = 0.0353333 (at node 0)
	maximum = 0.0646667 (at node 9)
Injected packet length average = 1
Accepted packet length average = 1
Total in-flight flits = 30 (30 measured)
latency change    = 0.012607
throughput change = 0.00721562
Class 0:
Packet latency average = 24.9273
	minimum = 7
	maximum = 221
Network latency average = 24.7392
	minimum = 7
	maximum = 221
Slowest packet = 38369
Flit latency average = 24.9288
	minimum = 7
	maximum = 221
Slowest flit = 38369
Fragmentation average = 0
	minimum = 0
	maximum = 0
Injected packet rate average = 0.0495625
	minimum = 0.0415 (at node 14)
	maximum = 0.062 (at node 6)
Accepted packet rate average = 0.049625
	minimum = 0.041 (at node 11)
	maximum = 0.062 (at node 9)
[...]
Fragmentation average = 0
	minimum = 0
	maximum = 0
Injected packet rate average = 0.0492187
	minimum = 0.0385 (at node 7)
	maximum = 0.0595 (at node 8)
Accepted packet rate average = 0.049125
	minimum = 0.038 (at node 13)
	maximum = 0.059 (at node 2)
Injected flit rate average = 0.0492187
	minimum = 0.0385 (at node 7)
	maximum = 0.0595 (at node 8)
Accepted flit rate average= 0.049125
	minimum = 0.038 (at node 13)
	maximum = 0.059 (at node 2)
Injected packet length average = 1
Accepted packet length average = 1
Total in-flight flits = 23 (23 measured)
latency change    = 0.110149
throughput change = 0.00508906
Class 0:
Packet latency average = 46.8535
	minimum = 7
	maximum = 698
Network latency average = 30.528
	minimum = 7
	maximum = 315
Slowest packet = 196147
Flit latency average = 30.4433
	minimum = 7
	maximum = 315
Slowest flit = 196563
Fragmentation average = 0
	minimum = 0
	maximum = 0
Injected packet rate average = 0.0498
	minimum = 0.0412 (at node 7)
	maximum = 0.0596 (at node 8)
Accepted packet rate average = 0.049625
	minimum = 0.04 (at node 13)
	maximum = 0.0572 (at node 2)
Injected flit rate average = 0.0498
	minimum = 0.0412 (at node 7)
	maximum = 0.0596 (at node 8)
Accepted flit rate average= 0.049625
	minimum = 0.04 (at node 13)
	maximum = 0.0572 (at node 2)
Injected packet length average = 1
Accepted packet length average = 1
Total in-flight flits = 27 (27 measured)
latency change    = 0.0548558
throughput change = 0.0100756
Class 0:
Packet latency average = 48.7479
	minimum = 7
	maximum = 715
Network latency average = 30.5292
	minimum = 7
	maximum = 315
Slowest packet = 196147
Flit latency average = 30.4586
	minimum = 7
	maximum = 315
Slowest flit = 196563
Fragmentation average = 0
	minimum = 0
	maximum = 0
Injected packet rate average = 0.04975
	minimum = 0.0426667 (at node 7)
	maximum = 0.0566667 (at node 8)
Accepted packet rate average = 0.0495625
	minimum = 0.042 (at node 3)
	maximum = 0.0563333 (at node 6)
Injected flit rate average = 0.04975
	minimum = 0.0426667 (at node 7)
	maximum = 0.0566667 (at node 8)
Accepted flit rate average= 0.0495625
	minimum = 0.042 (at node 3)
	maximum = 0.0563333 (at node 6)
Injected packet length average = 1
Accepted packet length average = 1
Total in-flight flits = 29 (29 measured)
latency change    = 0.0388606
throughput change = 0.00126103
Class 0:
Packet latency average = 50.9352
	minimum = 7
	maximum = 715
Network latency average = 30.5198
	minimum = 7
	maximum = 315
Slowest packet = 196147
Flit latency average = 30.4598
	minimum = 7
	maximum = 315
Slowest flit = 196563
Fragmentation average = 0
	minimum = 0
	maximum = 0
Injected packet rate average = 0.0502321
	minimum = 0.0425714 (at node 7)
	maximum = 0.0557143 (at node 9)
Accepted packet rate average = 0.0499464
	minimum = 0.0428571 (at node 13)
	maximum = 0.0562857 (at node 6)
Injected flit rate average = 0.0502321
	minimum = 0.0425714 (at node 7)
	maximum = 0.0557143 (at node 9)
Accepted flit rate average= 0.0499464
	minimum = 0.0428571 (at node 13)
	maximum = 0.0562857 (at node 6)
Injected packet length average = 1
Accepted packet length average = 1
Total in-flight flits = 37 (37 measured)
latency change    = 0.0429433
throughput change = 0.00768681
Draining all recorded packets ...
Draining remaining packets ...
Time taken is 5768 cycles
Class 0:
Packet latency average = 28.6135
	minimum = 7
	maximum = 184
Network latency average = 27.9216
	minimum = 7
	maximum = 184
Slowest packet = 199409
Flit latency average = 27.9216
	minimum = 7
	maximum = 184
Slowest flit = 199409
Fragmentation average = 0
	minimum = 0
	maximum = 0
Injected packet rate average = 0.0485
	minimum = 0.036 (at node 10)
	maximum = 0.064 (at node 12)
Accepted packet rate average = 0.04625
	minimum = 0.036 (at node 10)
	maximum = 0.058 (at node 1)
Injected flit rate average = 0.0485
	minimum = 0.036 (at node 10)
	maximum = 0.064 (at node 12)
Accepted flit rate average= 0.04625
	minimum = 0.036 (at node 10)
	maximum = 0.058 (at node 1)
Injected packet length average = 1
Accepted packet length average = 1
Total in-flight flits = 19 (0 measured)
latency change    = 1
throughput change = 1
Class 0:
Packet latency average = 26.4005
	minimum = 7
	maximum = 184
Network latency average = 25.4449
	minimum = 7
	maximum = 184
Slowest packet = 199409
Flit latency average = 25.4449
	minimum = 7
	maximum = 184
Slowest flit = 199409
Fragmentation average = 0
	minimum = 0
	maximum = 0
Injected packet rate average = 0.0476875
	minimum = 0.04 (at node 0)
	maximum = 0.053 (at node 7)
Accepted packet rate average = 0.0465
	minimum = 0.04 (at node 0)
	maximum = 0.051 (at node 4)
Injected flit rate average = 0.0476875
	minimum = 0.04 (at node 0)
	maximum = 0.053 (at node 7)
Accepted flit rate average= 0.0465
	minimum = 0.04 (at node 0)
	maximum = 0.051 (at node 4)
Injected packet length average = 1
Accepted packet length average = 1
Total in-flight flits = 20 (0 measured)
latency change    = 0.0838231
throughput change = 0.00537634
Class 0:
Packet latency average = 37.0727
	minimum = 7
	maximum = 326
Network latency average = 31.8909
	minimum = 7
	maximum = 311
Slowest packet = 200119
Flit latency average = 31.8909
	minimum = 7
	maximum = 311
Slowest flit = 200119
Fragmentation average = 0
	minimum = 0
	maximum = 0
Injected packet rate average = 0.04875
	minimum = 0.028 (at node 6)
	maximum = 0.066 (at node 4)
Accepted packet rate average = 0.048125
	minimum = 0.028 (at node 9)
	maximum = 0.064 (at node 2)
Injected flit rate average = 0.04875
	minimum = 0.028 (at node 6)
	maximum = 0.066 (at node 4)
Accepted flit rate average= 0.048125
	minimum = 0.028 (at node 9)
	maximum = 0.064 (at node 2)
Injected packet length average = 1
Accepted packet length average = 1
Total in-flight flits = 25 (0 measured)
latency change    = 0.287872
throughput change = 0.0337662
Warmed up ...Time used is 1500 cycles
Class 0:
Packet latency average = 33.5185
	minimum = 7
	maximum = 429
Network latency average = 27.2011
	minimum = 7
	maximum = 271
Slowest packet = 200475
Flit latency average = 31.7196
	minimum = 7
	maximum = 331
Slowest flit = 200278
Fragmentation average = 0
	minimum = 0
	maximum = 0
Injected packet rate average = 0.049875
	minimum = 0.034 (at node 5)
	maximum = 0.066 (at node 2)
Accepted packet rate average = 0.050375
	minimum = 0.034 (at node 5)
	maximum = 0.066 (at node 8)
Injected flit rate average = 0.049875
	minimum = 0.034 (at node 5)
	maximum = 0.066 (at node 2)
Accepted flit rate average= 0.050375
	minimum = 0.034 (at node 5)
	maximum = 0.066 (at node 8)
Injected packet length average = 1
Accepted packet length average = 1
Total in-flight flits = 20 (20 measured)
latency change    = 0.106037
throughput change = 0.044665
Class 0:
Packet latency average = 34.7368
	minimum = 7
	maximum = 429
Network latency average = 27.9962
	minimum = 7
	maximum = 271
Slowest packet = 200475
Flit latency average = 30.1847
	minimum = 7
	maximum = 331
Slowest flit = 200278
Fragmentation average = 0
	minimum = 0
	maximum = 0
Injected packet rate average = 0.0518125
	minimum = 0.037 (at node 5)
	maximum = 0.063 (at node 10)
Accepted packet rate average = 0.0514375
	minimum = 0.037 (at node 5)
	maximum = 0.064 (at node 10)
Injected flit rate average = 0.0518125
	minimum = 0.037 (at node 5)
	maximum = 0.063 (at node 10)
Accepted flit rate average= 0.0514375
	minimum = 0.037 (at node 5)
	maximum = 0.064 (at node 10)
Injected packet length average = 1
Accepted packet length average = 1
Total in-flight flits = 30 (30 measured)
latency change    = 0.035073
throughput change = 0.0206561
Class 0:
Packet latency average = 32.9338
	minimum = 7
	maximum = 429
Network latency average = 28.3946
	minimum = 7
	maximum = 271
Slowest packet = 200475
Flit latency average = 29.8287
	minimum = 7
	maximum = 331
Slowest flit = 200278
Fragmentation average = 0
	minimum = 0
	maximum = 0
Injected packet rate average = 0.0520833
	minimum = 0.0373333 (at node 5)
	maximum = 0.0646667 (at node 10)
Accepted packet rate average = 0.0520417
	minimum = 0.0373333 (at node 5)
	maximum = 0.0653333 (at node 10)
Injected flit rate average = 0.0520833
	minimum = 0.0373333 (at node 5)
	maximum = 0.0646667 (at node 10)
Accepted flit rate average= 0.0520417
	minimum = 0.0373333 (at node 5)
	maximum = 0.0653333 (at node 10)
Injected packet length average = 1
Accepted packet length average = 1
Total in-flight flits = 25 (25 measured)
latency change    = 0.0547467
throughput change = 0.0116093
Class 0:
Packet latency average = 32.6185
	minimum = 7
	maximum = 429
Network latency average = 28.7988
	minimum = 7
	maximum = 271
Slowest packet = 200475
Flit latency average = 29.8815
	minimum = 7
	maximum = 331
Slowest flit = 200278
Fragmentation average = 0
	minimum = 0
	maximum = 0
Injected packet rate average = 0.0515
	minimum = 0.0405 (at node 5)
	maximum = 0.0615 (at node 10)
Accepted packet rate average = 0.0514063
	minimum = 0.0405 (at node 5)
	maximum = 0.062 (at node 10)
Injected flit rate average = 0.0515
	minimum = 0.0405 (at node 5)
	maximum = 0.0615 (at node 10)
Accepted flit rate average= 0.0514063
	minimum = 0.0405 (at node 5)
	maximum = 0.062 (at node 10)
Injected packet length average = 1
Accepted packet length average = 1
Total in-flight flits = 27 (27 measured)
latency change    = 0.00966644
throughput change = 0.0123607
Class 0:
Packet latency average = 32.6169
	minimum = 7
	maximum = 429
Network latency average = 28.83
	minimum = 7
	maximum = 271
Slowest packet = 200475
Flit latency average = 29.7117
	minimum = 7
	maximum = 331
Slowest flit = 200278
Fragmentation average = 0
	minimum = 0
	maximum = 0
Injected packet rate average = 0.05035
	minimum = 0.0416 (at node 5)
	maximum = 0.0596 (at node 15)
Accepted packet rate average = 0.050475
	minimum = 0.0416 (at node 5)
	maximum = 0.0596 (at node 15)
Injected flit rate average = 0.05035
	minimum = 0.0416 (at node 5)
	maximum = 0.0596 (at node 15)
Accepted flit rate average= 0.050475
	minimum = 0.0416 (at node 5)
	maximum = 0.0596 (at node 15)
Injected packet length average = 1
Accepted packet length average = 1
Total in-flight flits = 19 (19 measured)
latency change    = 5.11382e-05
throughput change = 0.0184497
Class 0:
Packet latency average = 31.1299
	minimum = 7
	maximum = 429
Network latency average = 27.9651
	minimum = 7
	maximum = 271
Slowest packet = 200475
Flit latency average = 28.7051
	minimum = 7
	maximum = 331
Slowest flit = 200278
Fragmentation average = 0
	minimum = 0
	maximum = 0
Injected packet rate average = 0.0506875
	minimum = 0.043 (at node 5)
	maximum = 0.0576667 (at node 10)
Accepted packet rate average = 0.0507292
	minimum = 0.0426667 (at node 14)
	maximum = 0.058 (at node 10)
Injected flit rate average = 0.0506875
	minimum = 0.043 (at node 5)
	maximum = 0.0576667 (at node 10)
Accepted flit rate average= 0.0507292
	minimum = 0.0426667 (at node 14)
	maximum = 0.058 (at node 10)
Injected packet length average = 1
Accepted packet length average = 1
Total in-flight flits = 22 (22 measured)
latency change    = 0.0477668
throughput change = 0.00501027
Draining all recorded packets ...
Draining remaining packets ...
Time taken is 4668 cycles
Class 0:
Packet latency average = 28.5213
	minimum = 7
	maximum = 243
Network latency average = 27.7343
	minimum = 7
	maximum = 243
Slowest packet = 203061
Flit latency average = 27.7343
	minimum = 7
	maximum = 243
Slowest flit = 203061
Fragmentation average = 0
	minimum = 0
	maximum = 0
Injected packet rate average = 0.05225
	minimum = 0.038 (at node 9)
	maximum = 0.064 (at node 8)
Accepted packet rate average = 0.049875
	minimum = 0.034 (at node 6)
	maximum = 0.062 (at node 2)
Injected flit rate average = 0.05225
	minimum = 0.038 (at node 9)
	maximum = 0.064 (at node 8)
Accepted flit rate average= 0.049875
	minimum = 0.034 (at node 6)
	maximum = 0.062 (at node 2)
Injected packet length average = 1
Accepted packet length average = 1
Total in-flight flits = 19 (0 measured)
latency change    = 1
throughput change = 1
Class 0:
Packet latency average = 29.0282
	minimum = 7
	maximum = 250
Network latency average = 28.2966
	minimum = 7
	maximum = 250
Slowest packet = 203295
Flit latency average = 28.2966
	minimum = 7
	maximum = 250
Slowest flit = 203295
Fragmentation average = 0
	minimum = 0
	maximum = 0
Injected packet rate average = 0.052375
	minimum = 0.048 (at node 6)
	maximum = 0.062 (at node 3)
Accepted packet rate average = 0.051
	minimum = 0.046 (at node 3)
	maximum = 0.062 (at node 12)
Injected flit rate average = 0.052375
	minimum = 0.048 (at node 6)
	maximum = 0.062 (at node 3)
Accepted flit rate average= 0.051
	minimum = 0.046 (at node 3)
	maximum = 0.062 (at node 12)
Injected packet length average = 1
Accepted packet length average = 1
Total in-flight flits = 22 (0 measured)
latency change    = 0.0174618
throughput change = 0.0220588
Class 0:
Packet latency average = 30.4349
	minimum = 7
	maximum = 255
Network latency average = 30.2578
	minimum = 7
	maximum = 255
Slowest packet = 203780
Flit latency average = 30.2578
	minimum = 7
	maximum = 255
Slowest flit = 203780
Fragmentation average = 0
	minimum = 0
	maximum = 0
Injected packet rate average = 0.04825
	minimum = 0.03 (at node 0)
	maximum = 0.06 (at node 14)
Accepted packet rate average = 0.048
	minimum = 0.032 (at node 0)
	maximum = 0.06 (at node 11)
Injected flit rate average = 0.04825
	minimum = 0.03 (at node 0)
	maximum = 0.06 (at node 14)
Accepted flit rate average= 0.048
	minimum = 0.032 (at node 0)
	maximum = 0.06 (at node 11)
Injected packet length average = 1
Accepted packet length average = 1
Total in-flight flits = 25 (0 measured)
latency change    = 0.0462203
throughput change = 0.0625
Warmed up ...Time used is 1500 cycles
Class 0:
Packet latency average = 26.7545
	minimum = 7
	maximum = 236
Network latency average = 26.3721
	minimum = 7
	maximum = 225
Slowest packet = 204159
Flit latency average = 29.7476
	minimum = 7
	maximum = 238
Slowest flit = 204092
Fragmentation average = 0
	minimum = 0
	maximum = 0
Injected packet rate average = 0.052125
	minimum = 0.03 (at node 3)
	maximum = 0.07 (at node 1)
Accepted packet rate average = 0.0515
	minimum = 0.034 (at node 12)
	maximum = 0.07 (at node 4)
Injected flit rate average = 0.052125
	minimum = 0.03 (at node 3)
	maximum = 0.07 (at node 1)
Accepted flit rate average= 0.0515
	minimum = 0.034 (at node 12)
	maximum = 0.07 (at node 4)
Injected packet length average = 1
Accepted packet length average = 1
Total in-flight flits = 29 (29 measured)
latency change    = 0.137561
throughput change = 0.0679612
Class 0:
Packet latency average = 32.3826
	minimum = 7
	maximum = 305
Network latency average = 28.9507
	minimum = 7
	maximum = 305
Slowest packet = 204443
Flit latency average = 30.6168
	minimum = 7
	maximum = 305
Slowest flit = 204443
Fragmentation average = 0
	minimum = 0
	maximum = 0
Injected packet rate average = 0.0491875
	minimum = 0.041 (at node 3)
	maximum = 0.057 (at node 11)
Accepted packet rate average = 0.04975
	minimum = 0.044 (at node 3)
	maximum = 0.06 (at node 2)
Injected flit rate average = 0.0491875
	minimum = 0.041 (at node 3)
	maximum = 0.057 (at node 11)
Accepted flit rate average= 0.04975
	minimum = 0.044 (at node 3)
	maximum = 0.06 (at node 2)
Injected packet length average = 1
Accepted packet length average = 1
Total in-flight flits = 15 (15 measured)
latency change    = 0.1738
throughput change = 0.0351759
Class 0:
Packet latency average = 29.0978
	minimum = 7
	maximum = 305
Network latency average = 26.8088
	minimum = 7
	maximum = 305
Slowest packet = 204443
Flit latency average = 27.9771
	minimum = 7
	maximum = 305
Slowest flit = 204443
Fragmentation average = 0
	minimum = 0
	maximum = 0
Injected packet rate average = 0.0492917
	minimum = 0.042 (at node 7)
	maximum = 0.056 (at node 4)
Accepted packet rate average = 0.0492083
	minimum = 0.0426667 (at node 9)
	maximum = 0.056 (at node 1)
Injected flit rate average = 0.0492917
	minimum = 0.042 (at node 7)
	maximum = 0.056 (at node 4)
Accepted flit rate average= 0.0492083
	minimum = 0.0426667 (at node 9)
	maximum = 0.056 (at node 1)
Injected packet length average = 1
Accepted packet length average = 1
Total in-flight flits = 26 (26 measured)
latency change    = 0.112891
throughput change = 0.0110076
Class 0:
Packet latency average = 29.0859
	minimum = 7
	maximum = 305
Network latency average = 27.1276
	minimum = 7
	maximum = 305
Slowest packet = 204443
Flit latency average = 27.9931
	minimum = 7
	maximum = 305
Slowest flit = 204443
Fragmentation average = 0
	minimum = 0
	maximum = 0
Injected packet rate average = 0.0494375
	minimum = 0.0405 (at node 7)
	maximum = 0.0555 (at node 11)
Accepted packet rate average = 0.0495312
	minimum = 0.042 (at node 13)
	maximum = 0.055 (at node 14)
Injected flit rate average = 0.0494375
	minimum = 0.0405 (at node 7)
	maximum = 0.0555 (at node 11)
Accepted flit rate average= 0.0495312
	minimum = 0.042 (at node 13)
	maximum = 0.055 (at node 14)
Injected packet length average = 1
Accepted packet length average = 1
Total in-flight flits = 21 (21 measured)
latency change    = 0.000407532
throughput change = 0.00651945
Class 0:
Packet latency average = 28.9489
	minimum = 7
	maximum = 305
Network latency average = 27.3119
	minimum = 7
	maximum = 305
Slowest packet = 204443
Flit latency average = 27.9955
	minimum = 7
	maximum = 305
Slowest flit = 204443
Fragmentation average = 0
	minimum = 0
	maximum = 0
Injected packet rate average = 0.05025
	minimum = 0.0396 (at node 7)
	maximum = 0.0568 (at node 11)
Accepted packet rate average = 0.05
	minimum = 0.04 (at node 13)
	maximum = 0.0568 (at node 14)
Injected flit rate average = 0.05025
	minimum = 0.0396 (at node 7)
	maximum = 0.0568 (at node 11)
Accepted flit rate average= 0.05
	minimum = 0.04 (at node 13)
	maximum = 0.0568 (at node 14)
Injected packet length average = 1
Accepted packet length average = 1
Total in-flight flits = 34 (34 measured)
latency change    = 0.00473375
throughput change = 0.009375
Class 0:
Packet latency average = 29.8784
	minimum = 7
	maximum = 305
Network latency average = 27.9311
	minimum = 7
	maximum = 305
Slowest packet = 204443
Flit latency average = 28.4899
	minimum = 7
	maximum = 305
Slowest flit = 204443
Fragmentation average = 0
	minimum = 0
	maximum = 0
Injected packet rate average = 0.0506042
	minimum = 0.042 (at node 7)
	maximum = 0.056 (at node 0)
Accepted packet rate average = 0.0503958
	minimum = 0.041 (at node 13)
	maximum = 0.0556667 (at node 1)
Injected flit rate average = 0.0506042
	minimum = 0.042 (at node 7)
	maximum = 0.056 (at node 0)
Accepted flit rate average= 0.0503958
	minimum = 0.041 (at node 13)
	maximum = 0.0556667 (at node 1)
Injected packet length average = 1
Accepted packet length average = 1
Total in-flight flits = 35 (35 measured)
latency change    = 0.0311122
throughput change = 0.00785449
Draining all recorded packets ...
Draining remaining packets ...
Time taken is 5102 cycles
====== Overall Traffic Statistics ======
====== Traffic class 0 ======
Packet latency average = 47.9902 (50 samples)
	minimum = 7 (50 samples)
	maximum = 714.08 (50 samples)
Network latency average = 30.3984 (50 samples)
	minimum = 7 (50 samples)
	maximum = 356.68 (50 samples)
Flit latency average = 29.9691 (50 samples)
	minimum = 7 (50 samples)
	maximum = 358.72 (50 samples)
Fragmentation average = 0 (50 samples)
	minimum = 0 (50 samples)
	maximum = 0 (50 samples)
Injected packet rate average = 0.0497184 (50 samples)
	minimum = 0.0419069 (50 samples)
	maximum = 0.0569694 (50 samples)
Accepted packet rate average = 0.0497029 (50 samples)
	minimum = 0.0418321 (50 samples)
	maximum = 0.0570531 (50 samples)
Injected flit rate average = 0.0497184 (50 samples)
	minimum = 0.0419069 (50 samples)
	maximum = 0.0569694 (50 samples)
Accepted flit rate average = 0.0497029 (50 samples)
	minimum = 0.0418321 (50 samples)
	maximum = 0.0570531 (50 samples)
Injected packet size average = 1 (50 samples)
Accepted packet size average = 1 (50 samples)
Hops average = 3.50232 (50 samples)
Total run time 3.23538
