BEGIN Configuration File: /tmp/tmpbv5kiyhq.cfg
topology = mesh;
k = 4;
n = 2;
routing_function = planar_adapt;
num_vcs = 4;
vc_buf_size = 4;
wait_for_tail_credit = 1;
vc_allocator = islip;
sw_allocator = islip;
alloc_iters = 1;
credit_delay = 2;
routing_delay = 1;
vc_alloc_delay = 1;
sw_alloc_delay = 1;
input_speedup = 2;
output_speedup = 1;
internal_speedup = 1.0;
traffic = uniform;
packet_size = 1;
sim_type = latency;
injection_rate = 0.05;
warmup_periods = 3;
sample_period = 500;
sim_count = 50;
seed = 0;
link_failures = 2;
fail_seed = 101;

END Configuration File: /tmp/tmpbv5kiyhq.cfg
failure at node 14, channel 0 (1/2)
failure at node 12, channel 0 (2/2)
Class 0:
Packet latency average = 20.2188
	minimum = 7
	maximum = 52
Network latency average = 20.2188
	minimum = 7
	maximum = 52
Slowest packet = 231
Flit latency average = 20.2188
	minimum = 7
	maximum = 52
Slowest flit = 231
Fragmentation average = 0
	minimum = 0
	maximum = 0
Injected packet rate average = 0.049625
	minimum = 0.032 (at node 8)
	maximum = 0.064 (at node 13)
Accepted packet rate average = 0.048
	minimum = 0.024 (at node 11)
	maximum = 0.064 (at node 2)
Injected flit rate average = 0.049625
	minimum = 0.032 (at node 8)
	maximum = 0.064 (at node 13)
Accepted flit rate average= 0.048
	minimum = 0.024 (at node 11)
	maximum = 0.064 (at node 2)
Injected packet length average = 1
Accepted packet length average = 1
Total in-flight flits = 13 (0 measured)
latency change    = 1
throughput change = 1
Class 0:
Packet latency average = 20.1195
	minimum = 7
	maximum = 52
Network latency average = 20.1195
	minimum = 7
	maximum = 52
Slowest packet = 231
Flit latency average = 20.1195
	minimum = 7
	maximum = 52
Slowest flit = 231
Fragmentation average = 0
	minimum = 0
	maximum = 0
Injected packet rate average = 0.048875
	minimum = 0.041 (at node 5)
	maximum = 0.054 (at node 1)
Accepted packet rate average = 0.048125
	minimum = 0.038 (at node 11)
	maximum = 0.054 (at node 0)
Injected flit rate average = 0.048875
	minimum = 0.041 (at node 5)
	maximum = 0.054 (at node 1)
Accepted flit rate average= 0.048125
	minimum = 0.038 (at node 11)
	maximum = 0.054 (at node 0)
Injected packet length average = 1
Accepted packet length average = 1
Total in-flight flits = 12 (0 measured)
latency change    = 0.004934
throughput change = 0.0025974
Class 0:
Packet latency average = 21.1897
	minimum = 7
	maximum = 61
Network latency average = 21.1897
	minimum = 7
	maximum = 61
Slowest packet = 1028
Flit latency average = 21.1897
	minimum = 7
	maximum = 61
Slowest flit = 1028
Fragmentation average = 0
	minimum = 0
	maximum = 0
Injected packet rate average = 0.05025
	minimum = 0.032 (at node 11)
	maximum = 0.064 (at node 12)
Accepted packet rate average = 0.04875
	minimum = 0.032 (at node 0)
	maximum = 0.064 (at node 7)
Injected flit rate average = 0.05025
	minimum = 0.032 (at node 11)
	maximum = 0.064 (at node 12)
Accepted flit rate average= 0.04875
	minimum = 0.032 (at node 0)
	maximum = 0.064 (at node 7)
Injected packet length average = 1
Accepted packet length average = 1
Total in-flight flits = 24 (0 measured)
latency change    = 0.0505085
throughput change = 0.0128205
Warmed up ...Time used is 1500 cycles
Class 0:
Packet latency average = 20.608
	minimum = 7
	maximum = 53
Network latency average = 20.608
	minimum = 7
	maximum = 53
Slowest packet = 1184
Flit latency average = 20.8095
	minimum = 7
	maximum = 53
Slowest flit = 1184
Fragmentation average = 0
	minimum = 0
	maximum = 0
Injected packet rate average = 0.0485
	minimum = 0.036 (at node 9)
	maximum = 0.066 (at node 13)
Accepted packet rate average = 0.049875
	minimum = 0.03 (at node 2)
	maximum = 0.07 (at node 11)
Injected flit rate average = 0.0485
	minimum = 0.036 (at node 9)
	maximum = 0.066 (at node 13)
Accepted flit rate average= 0.049875
	minimum = 0.03 (at node 2)
	maximum = 0.07 (at node 11)
Injected packet length average = 1
Accepted packet length average = 1
Total in-flight flits = 13 (13 measured)
latency change    = 0.028229
throughput change = 0.0225564
Class 0:
Packet latency average = 20.5779
	minimum = 7
	maximum = 62
Network latency average = 20.5779
	minimum = 7
	maximum = 62
Slowest packet = 1885
Flit latency average = 20.6768
	minimum = 7
	maximum = 62
Slowest flit = 1885
Fragmentation average = 0
	minimum = 0
	maximum = 0
Injected packet rate average = 0.0505625
	minimum = 0.04 (at node 9)
	maximum = 0.064 (at node 13)
Accepted packet rate average = 0.05125
	minimum = 0.036 (at node 2)
	maximum = 0.064 (at node 8)
Injected flit rate average = 0.0505625
	minimum = 0.04 (at node 9)
	maximum = 0.064 (at node 13)
Accepted flit rate average= 0.05125
	minimum = 0.036 (at node 2)
	maximum = 0.064 (at node 8)
Injected packet length average = 1
Accepted packet length average = 1
Total in-flight flits = 13 (13 measured)
latency change    = 0.00146325
throughput change = 0.0268293
Class 0:
Packet latency average = 20.6167
	minimum = 7
	maximum = 62
Network latency average = 20.6167
	minimum = 7
	maximum = 62
Slowest packet = 1885
Flit latency average = 20.6825
	minimum = 7
	maximum = 62
Slowest flit = 1885
Fragmentation average = 0
	minimum = 0
	maximum = 0
Injected packet rate average = 0.0507083
	minimum = 0.044 (at node 9)
	maximum = 0.0566667 (at node 11)
Accepted packet rate average = 0.0507917
	minimum = 0.04 (at node 4)
	maximum = 0.0593333 (at node 11)
Injected flit rate average = 0.0507083
	minimum = 0.044 (at node 9)
	maximum = 0.0566667 (at node 11)
Accepted flit rate average= 0.0507917
	minimum = 0.04 (at node 4)
	maximum = 0.0593333 (at node 11)
Injected packet length average = 1
Accepted packet length average = 1
Total in-flight flits = 22 (22 measured)
latency change    = 0.00188424
throughput change = 0.00902379
Draining all recorded packets ...
Draining remaining packets ...
Time taken is 3062 cycles
Class 0:
Packet latency average = 20.7419
	minimum = 7
	maximum = 43
Network latency average = 20.7419
	minimum = 7
	maximum = 43
Slowest packet = 2602
Flit latency average = 20.7419
	minimum = 7
	maximum = 43
Slowest flit = 2602
Fragmentation average = 0
	minimum = 0
	maximum = 0
Injected packet rate average = 0.049625
	minimum = 0.04 (at node 0)
	maximum = 0.068 (at node 15)
Accepted packet rate average = 0.0465
	minimum = 0.024 (at node 15)
	maximum = 0.062 (at node 6)
Injected flit rate average = 0.049625
	minimum = 0.04 (at node 0)
	maximum = 0.068 (at node 15)
Accepted flit rate average= 0.0465
	minimum = 0.024 (at node 15)
	maximum = 0.062 (at node 6)
Injected packet length average = 1
Accepted packet length average = 1
Total in-flight flits = 25 (0 measured)
latency change    = 1
throughput change = 1
Class 0:
Packet latency average = 20.5705
	minimum = 7
	maximum = 43
Network latency average = 20.5705
	minimum = 7
	maximum = 43
Slowest packet = 2602
Flit latency average = 20.5705
	minimum = 7
	maximum = 43
Slowest flit = 2602
Fragmentation average = 0
	minimum = 0
	maximum = 0
Injected packet rate average = 0.0479375
	minimum = 0.034 (at node 0)
	maximum = 0.06 (at node 15)
Accepted packet rate average = 0.0465625
	minimum = 0.034 (at node 15)
	maximum = 0.059 (at node 6)
Injected flit rate average = 0.0479375
	minimum = 0.034 (at node 0)
	maximum = 0.06 (at node 15)
Accepted flit rate average= 0.0465625
	minimum = 0.034 (at node 15)
	maximum = 0.059 (at node 6)
Injected packet length average = 1
Accepted packet length average = 1
Total in-flight flits = 22 (0 measured)
latency change    = 0.00833553
throughput change = 0.00134228
Class 0:
Packet latency average = 20.4111
	minimum = 7
	maximum = 62
Network latency average = 20.4111
	minimum = 7
	maximum = 62
Slowest packet = 3275
Flit latency average = 20.4111
	minimum = 7
	maximum = 62
Slowest flit = 3275
Fragmentation average = 0
	minimum = 0
	maximum = 0
Injected packet rate average = 0.046
	minimum = 0.034 (at node 7)
	maximum = 0.062 (at node 10)
Accepted packet rate average = 0.047125
	minimum = 0.032 (at node 7)
	maximum = 0.064 (at node 6)
Injected flit rate average = 0.046
	minimum = 0.034 (at node 7)
	maximum = 0.062 (at node 10)
Accepted flit rate average= 0.047125
	minimum = 0.032 (at node 7)
	maximum = 0.064 (at node 6)
Injected packet length average = 1
Accepted packet length average = 1
Total in-flight flits = 13 (0 measured)
latency change    = 0.00780599
throughput change = 0.0119363
Warmed up ...Time used is 1500 cycles
Class 0:
Packet latency average = 19.9919
	minimum = 7
	maximum = 39
Network latency average = 19.9919
	minimum = 7
	maximum = 39
Slowest packet = 3688
Flit latency average = 20.1455
	minimum = 7
	maximum = 39
Slowest flit = 3688
Fragmentation average = 0
	minimum = 0
	maximum = 0
Injected packet rate average = 0.049375
	minimum = 0.036 (at node 0)
	maximum = 0.064 (at node 9)
Accepted packet rate average = 0.048125
	minimum = 0.038 (at node 9)
	maximum = 0.06 (at node 3)
Injected flit rate average = 0.049375
	minimum = 0.036 (at node 0)
	maximum = 0.064 (at node 9)
Accepted flit rate average= 0.048125
	minimum = 0.038 (at node 9)
	maximum = 0.06 (at node 3)
Injected packet length average = 1
Accepted packet length average = 1
Total in-flight flits = 23 (23 measured)
latency change    = 0.0209687
throughput change = 0.0207792
Class 0:
Packet latency average = 20.2703
	minimum = 7
	maximum = 45
Network latency average = 20.2703
	minimum = 7
	maximum = 45
Slowest packet = 4281
Flit latency average = 20.3419
	minimum = 7
	maximum = 45
Slowest flit = 4281
Fragmentation average = 0
	minimum = 0
	maximum = 0
Injected packet rate average = 0.0489375
	minimum = 0.04 (at node 2)
	maximum = 0.058 (at node 5)
Accepted packet rate average = 0.0484375
	minimum = 0.039 (at node 4)
	maximum = 0.059 (at node 7)
Injected flit rate average = 0.0489375
	minimum = 0.04 (at node 2)
	maximum = 0.058 (at node 5)
Accepted flit rate average= 0.0484375
	minimum = 0.039 (at node 4)
	maximum = 0.059 (at node 7)
Injected packet length average = 1
Accepted packet length average = 1
Total in-flight flits = 21 (21 measured)
latency change    = 0.0137346
throughput change = 0.00645161
Class 0:
Packet latency average = 20.523
	minimum = 7
	maximum = 53
Network latency average = 20.523
	minimum = 7
	maximum = 53
Slowest packet = 4526
Flit latency average = 20.5678
	minimum = 7
	maximum = 53
Slowest flit = 4526
Fragmentation average = 0
	minimum = 0
	maximum = 0
Injected packet rate average = 0.0487917
	minimum = 0.0386667 (at node 6)
	maximum = 0.0593333 (at node 15)
Accepted packet rate average = 0.0485833
	minimum = 0.042 (at node 4)
	maximum = 0.0586667 (at node 7)
Injected flit rate average = 0.0487917
	minimum = 0.0386667 (at node 6)
	maximum = 0.0593333 (at node 15)
Accepted flit rate average= 0.0485833
	minimum = 0.042 (at node 4)
	maximum = 0.0586667 (at node 7)
Injected packet length average = 1
Accepted packet length average = 1
Total in-flight flits = 18 (18 measured)
latency change    = 0.0123102
throughput change = 0.00300172
Draining all recorded packets ...
Draining remaining packets ...
Time taken is 3061 cycles
Class 0:
Packet latency average = 20.3835
	minimum = 7
	maximum = 41
Network latency average = 20.3835
	minimum = 7
	maximum = 41
Slowest packet = 4809
Flit latency average = 20.3835
	minimum = 7
	maximum = 41
Slowest flit = 4809
Fragmentation average = 0
	minimum = 0
	maximum = 0
Injected packet rate average = 0.055
	minimum = 0.04 (at node 8)
	maximum = 0.072 (at node 3)
Accepted packet rate average = 0.053125
	minimum = 0.036 (at node 6)
	maximum = 0.07 (at node 14)
Injected flit rate average = 0.055
	minimum = 0.04 (at node 8)
	maximum = 0.072 (at node 3)
Accepted flit rate average= 0.053125
	minimum = 0.036 (at node 6)
	maximum = 0.07 (at node 14)
Injected packet length average = 1
Accepted packet length average = 1
Total in-flight flits = 15 (0 measured)
latency change    = 1
throughput change = 1
Class 0:
Packet latency average = 20.2425
	minimum = 7
	maximum = 44
Network latency average = 20.2425
	minimum = 7
	maximum = 44
Slowest packet = 5267
Flit latency average = 20.2425
	minimum = 7
	maximum = 44
Slowest flit = 5267
Fragmentation average = 0
	minimum = 0
	maximum = 0
Injected packet rate average = 0.051
	minimum = 0.038 (at node 4)
	maximum = 0.064 (at node 13)
Accepted packet rate average = 0.05
	minimum = 0.039 (at node 2)
	maximum = 0.061 (at node 14)
Injected flit rate average = 0.051
	minimum = 0.038 (at node 4)
	maximum = 0.064 (at node 13)
Accepted flit rate average= 0.05
	minimum = 0.039 (at node 2)
	maximum = 0.061 (at node 14)
Injected packet length average = 1
Accepted packet length average = 1
Total in-flight flits = 16 (0 measured)
latency change    = 0.006967
throughput change = 0.0625
Class 0:
Packet latency average = 19.7422
	minimum = 7
	maximum = 48
Network latency average = 19.7422
	minimum = 7
	maximum = 48
Slowest packet = 5567
Flit latency average = 19.7422
	minimum = 7
	maximum = 48
Slowest flit = 5567
Fragmentation average = 0
	minimum = 0
	maximum = 0
Injected packet rate average = 0.0525
	minimum = 0.036 (at node 12)
	maximum = 0.068 (at node 6)
Accepted packet rate average = 0.051875
	minimum = 0.026 (at node 13)
	maximum = 0.066 (at node 9)
Injected flit rate average = 0.0525
	minimum = 0.036 (at node 12)
	maximum = 0.068 (at node 6)
Accepted flit rate average= 0.051875
	minimum = 0.026 (at node 13)
	maximum = 0.066 (at node 9)
Injected packet length average = 1
Accepted packet length average = 1
Total in-flight flits = 21 (0 measured)
latency change    = 0.0253433
throughput change = 0.0361446
Warmed up ...Time used is 1500 cycles
Class 0:
Packet latency average = 20.664
	minimum = 7
	maximum = 45
Network latency average = 20.664
	minimum = 7
	maximum = 45
Slowest packet = 6225
Flit latency average = 20.7974
	minimum = 7
	maximum = 45
Slowest flit = 6225
Fragmentation average = 0
	minimum = 0
	maximum = 0
Injected packet rate average = 0.04825
	minimum = 0.036 (at node 10)
	maximum = 0.06 (at node 3)
Accepted packet rate average = 0.04875
	minimum = 0.038 (at node 3)
	maximum = 0.064 (at node 8)
Injected flit rate average = 0.04825
	minimum = 0.036 (at node 10)
	maximum = 0.06 (at node 3)
Accepted flit rate average= 0.04875
	minimum = 0.038 (at node 3)
	maximum = 0.064 (at node 8)
Injected packet length average = 1
Accepted packet length average = 1
Total in-flight flits = 17 (17 measured)
latency change    = 0.0446085
throughput change = 0.0641026
Class 0:
Packet latency average = 20.522
	minimum = 7
	maximum = 45
Network latency average = 20.522
	minimum = 7
	maximum = 45
Slowest packet = 6225
Flit latency average = 20.5912
	minimum = 7
	maximum = 45
Slowest flit = 6225
Fragmentation average = 0
	minimum = 0
	maximum = 0
Injected packet rate average = 0.049625
	minimum = 0.041 (at node 7)
	maximum = 0.058 (at node 4)
Accepted packet rate average = 0.0496875
	minimum = 0.042 (at node 3)
	maximum = 0.062 (at node 8)
Injected flit rate average = 0.049625
	minimum = 0.041 (at node 7)
	maximum = 0.058 (at node 4)
Accepted flit rate average= 0.0496875
	minimum = 0.042 (at node 3)
	maximum = 0.062 (at node 8)
Injected packet length average = 1
Accepted packet length average = 1
Total in-flight flits = 20 (20 measured)
latency change    = 0.00691907
throughput change = 0.0188679
Class 0:
Packet latency average = 20.4411
	minimum = 7
	maximum = 45
Network latency average = 20.4411
	minimum = 7
	maximum = 45
Slowest packet = 6225
Flit latency average = 20.4877
	minimum = 7
	maximum = 45
Slowest flit = 6225
Fragmentation average = 0
	minimum = 0
	maximum = 0
Injected packet rate average = 0.0504583
	minimum = 0.0413333 (at node 13)
	maximum = 0.0613333 (at node 6)
Accepted packet rate average = 0.05075
	minimum = 0.0453333 (at node 14)
	maximum = 0.0626667 (at node 8)
Injected flit rate average = 0.0504583
	minimum = 0.0413333 (at node 13)
	maximum = 0.0613333 (at node 6)
Accepted flit rate average= 0.05075
	minimum = 0.0453333 (at node 14)
	maximum = 0.0626667 (at node 8)
Injected packet length average = 1
Accepted packet length average = 1
Total in-flight flits = 14 (14 measured)
latency change    = 0.00395581
throughput change = 0.020936
Class 0:
Packet latency average = 20.5114
	minimum = 7
	maximum = 55
Network latency average = 20.5114
	minimum = 7
	maximum = 55
Slowest packet = 7261
Flit latency average = 20.546
	minimum = 7
	maximum = 55
Slowest flit = 7261
Fragmentation average = 0
	minimum = 0
	maximum = 0
Injected packet rate average = 0.0495
	minimum = 0.041 (at node 13)
	maximum = 0.057 (at node 6)
Accepted packet rate average = 0.0499687
	minimum = 0.0445 (at node 3)
	maximum = 0.0615 (at node 8)
Injected flit rate average = 0.0495
	minimum = 0.041 (at node 13)
	maximum = 0.057 (at node 6)
Accepted flit rate average= 0.0499687
	minimum = 0.0445 (at node 3)
	maximum = 0.0615 (at node 8)
Injected packet length average = 1
Accepted packet length average = 1
Total in-flight flits = 6 (6 measured)
latency change    = 0.00342756
throughput change = 0.0156348
Draining all recorded packets ...
Draining remaining packets ...
Time taken is 3565 cycles
Class 0:
Packet latency average = 20.4153
	minimum = 7
	maximum = 46
Network latency average = 20.4153
	minimum = 7
	maximum = 46
Slowest packet = 7824
Flit latency average = 20.4153
	minimum = 7
	maximum = 46
Slowest flit = 7824
Fragmentation average = 0
	minimum = 0
	maximum = 0
Injected packet rate average = 0.04725
	minimum = 0.034 (at node 0)
	maximum = 0.056 (at node 12)
Accepted packet rate average = 0.04425
	minimum = 0.026 (at node 6)
	maximum = 0.064 (at node 12)
Injected flit rate average = 0.04725
	minimum = 0.034 (at node 0)
	maximum = 0.056 (at node 12)
Accepted flit rate average= 0.04425
	minimum = 0.026 (at node 6)
	maximum = 0.064 (at node 12)
Injected packet length average = 1
Accepted packet length average = 1
Total in-flight flits = 24 (0 measured)
latency change    = 1
throughput change = 1
Class 0:
Packet latency average = 20.1874
	minimum = 7
	maximum = 46
Network latency average = 20.1874
	minimum = 7
	maximum = 46
Slowest packet = 7824
Flit latency average = 20.1874
	minimum = 7
	maximum = 46
Slowest flit = 7824
Fragmentation average = 0
	minimum = 0
	maximum = 0
Injected packet rate average = 0.048625
	minimum = 0.04 (at node 1)
	maximum = 0.058 (at node 11)
Accepted packet rate average = 0.0476875
	minimum = 0.032 (at node 4)
	maximum = 0.061 (at node 3)
Injected flit rate average = 0.048625
	minimum = 0.04 (at node 1)
	maximum = 0.058 (at node 11)
Accepted flit rate average= 0.0476875
	minimum = 0.032 (at node 4)
	maximum = 0.061 (at node 3)
Injected packet length average = 1
Accepted packet length average = 1
Total in-flight flits = 15 (0 measured)
latency change    = 0.011286
throughput change = 0.0720839
Class 0:
Packet latency average = 19.9263
	minimum = 7
	maximum = 46
Network latency average = 19.9263
	minimum = 7
	maximum = 46
Slowest packet = 8657
Flit latency average = 19.9263
	minimum = 7
	maximum = 46
Slowest flit = 8657
Fragmentation average = 0
	minimum = 0
	maximum = 0
Injected packet rate average = 0.04775
	minimum = 0.038 (at node 3)
	maximum = 0.064 (at node 9)
Accepted packet rate average = 0.0475
	minimum = 0.032 (at node 10)
	maximum = 0.068 (at node 2)
Injected flit rate average = 0.04775
	minimum = 0.038 (at node 3)
	maximum = 0.064 (at node 9)
Accepted flit rate average= 0.0475
	minimum = 0.032 (at node 10)
	maximum = 0.068 (at node 2)
Injected packet length average = 1
Accepted packet length average = 1
Total in-flight flits = 17 (0 measured)
latency change    = 0.0131034
throughput change = 0.00394737
Warmed up ...Time used is 1500 cycles
Class 0:
Packet latency average = 20.8277
	minimum = 7
	maximum = 51
Network latency average = 20.8277
	minimum = 7
	maximum = 51
Slowest packet = 8914
Flit latency average = 20.9441
	minimum = 7
	maximum = 51
Slowest flit = 8914
Fragmentation average = 0
	minimum = 0
	maximum = 0
Injected packet rate average = 0.054125
	minimum = 0.038 (at node 3)
	maximum = 0.082 (at node 0)
Accepted packet rate average = 0.053625
	minimum = 0.038 (at node 12)
	maximum = 0.08 (at node 0)
Injected flit rate average = 0.054125
	minimum = 0.038 (at node 3)
	maximum = 0.082 (at node 0)
Accepted flit rate average= 0.053625
	minimum = 0.038 (at node 12)
	maximum = 0.08 (at node 0)
Injected packet length average = 1
Accepted packet length average = 1
Total in-flight flits = 21 (21 measured)
latency change    = 0.0432768
throughput change = 0.114219
Class 0:
Packet latency average = 21.0123
	minimum = 7
	maximum = 51
Network latency average = 21.0123
	minimum = 7
	maximum = 51
Slowest packet = 8914
Flit latency average = 21.0684
	minimum = 7
	maximum = 51
Slowest flit = 8914
Fragmentation average = 0
	minimum = 0
	maximum = 0
Injected packet rate average = 0.052
	minimum = 0.038 (at node 14)
	maximum = 0.073 (at node 0)
Accepted packet rate average = 0.0520625
	minimum = 0.042 (at node 9)
	maximum = 0.063 (at node 0)
Injected flit rate average = 0.052
	minimum = 0.038 (at node 14)
	maximum = 0.073 (at node 0)
Accepted flit rate average= 0.0520625
	minimum = 0.042 (at node 9)
	maximum = 0.063 (at node 0)
Injected packet length average = 1
Accepted packet length average = 1
Total in-flight flits = 16 (16 measured)
latency change    = 0.00878464
throughput change = 0.030012
Class 0:
Packet latency average = 20.9348
	minimum = 7
	maximum = 57
Network latency average = 20.9348
	minimum = 7
	maximum = 57
Slowest packet = 9887
Flit latency average = 20.973
	minimum = 7
	maximum = 57
Slowest flit = 9887
Fragmentation average = 0
	minimum = 0
	maximum = 0
Injected packet rate average = 0.0522917
	minimum = 0.0393333 (at node 14)
	maximum = 0.0666667 (at node 0)
Accepted packet rate average = 0.0524583
	minimum = 0.0453333 (at node 9)
	maximum = 0.0626667 (at node 10)
Injected flit rate average = 0.0522917
	minimum = 0.0393333 (at node 14)
	maximum = 0.0666667 (at node 0)
Accepted flit rate average= 0.0524583
	minimum = 0.0453333 (at node 9)
	maximum = 0.0626667 (at node 10)
Injected packet length average = 1
Accepted packet length average = 1
Total in-flight flits = 13 (13 measured)
latency change    = 0.00370065
throughput change = 0.00754567
Class 0:
Packet latency average = 20.6908
	minimum = 7
	maximum = 57
Network latency average = 20.6908
	minimum = 7
	maximum = 57
Slowest packet = 9887
Flit latency average = 20.7221
	minimum = 7
	maximum = 57
Slowest flit = 9887
Fragmentation average = 0
	minimum = 0
	maximum = 0
Injected packet rate average = 0.0524063
	minimum = 0.0415 (at node 14)
	maximum = 0.0635 (at node 0)
Accepted packet rate average = 0.0522813
	minimum = 0.046 (at node 9)
	maximum = 0.06 (at node 10)
Injected flit rate average = 0.0524063
	minimum = 0.0415 (at node 14)
	maximum = 0.0635 (at node 0)
Accepted flit rate average= 0.0522813
	minimum = 0.046 (at node 9)
	maximum = 0.06 (at node 10)
Injected packet length average = 1
Accepted packet length average = 1
Total in-flight flits = 21 (21 measured)
latency change    = 0.0117908
throughput change = 0.00338713
Draining all recorded packets ...
Draining remaining packets ...
Time taken is 3557 cycles
Class 0:
Packet latency average = 21.0995
	minimum = 7
	maximum = 67
Network latency average = 21.0995
	minimum = 7
	maximum = 67
Slowest packet = 10568
Flit latency average = 21.0995
	minimum = 7
	maximum = 67
Slowest flit = 10568
Fragmentation average = 0
	minimum = 0
	maximum = 0
Injected packet rate average = 0.05475
	minimum = 0.032 (at node 4)
	maximum = 0.08 (at node 10)
Accepted packet rate average = 0.05275
	minimum = 0.04 (at node 0)
	maximum = 0.066 (at node 7)
Injected flit rate average = 0.05475
	minimum = 0.032 (at node 4)
	maximum = 0.08 (at node 10)
Accepted flit rate average= 0.05275
	minimum = 0.04 (at node 0)
	maximum = 0.066 (at node 7)
Injected packet length average = 1
Accepted packet length average = 1
Total in-flight flits = 16 (0 measured)
latency change    = 1
throughput change = 1
Class 0:
Packet latency average = 20.4203
	minimum = 7
	maximum = 67
Network latency average = 20.4203
	minimum = 7
	maximum = 67
Slowest packet = 10568
Flit latency average = 20.4203
	minimum = 7
	maximum = 67
Slowest flit = 10568
Fragmentation average = 0
	minimum = 0
	maximum = 0
Injected packet rate average = 0.053125
	minimum = 0.041 (at node 4)
	maximum = 0.07 (at node 11)
Accepted packet rate average = 0.05175
	minimum = 0.038 (at node 0)
	maximum = 0.064 (at node 5)
Injected flit rate average = 0.053125
	minimum = 0.041 (at node 4)
	maximum = 0.07 (at node 11)
Accepted flit rate average= 0.05175
	minimum = 0.038 (at node 0)
	maximum = 0.064 (at node 5)
Injected packet length average = 1
Accepted packet length average = 1
Total in-flight flits = 22 (0 measured)
latency change    = 0.0332628
throughput change = 0.0193237
Class 0:
Packet latency average = 20.3741
	minimum = 7
	maximum = 63
Network latency average = 20.3741
	minimum = 7
	maximum = 63
Slowest packet = 11379
Flit latency average = 20.3741
	minimum = 7
	maximum = 63
Slowest flit = 11379
Fragmentation average = 0
	minimum = 0
	maximum = 0
Injected packet rate average = 0.048625
	minimum = 0.034 (at node 6)
	maximum = 0.066 (at node 10)
Accepted packet rate average = 0.050125
	minimum = 0.024 (at node 4)
	maximum = 0.07 (at node 9)
Injected flit rate average = 0.048625
	minimum = 0.034 (at node 6)
	maximum = 0.066 (at node 10)
Accepted flit rate average= 0.050125
	minimum = 0.024 (at node 4)
	maximum = 0.07 (at node 9)
Injected packet length average = 1
Accepted packet length average = 1
Total in-flight flits = 10 (0 measured)
latency change    = 0.00226882
throughput change = 0.032419
Warmed up ...Time used is 1500 cycles
Class 0:
Packet latency average = 20.213
	minimum = 7
	maximum = 47
Network latency average = 20.213
	minimum = 7
	maximum = 47
Slowest packet = 12074
Flit latency average = 20.3266
	minimum = 7
	maximum = 47
Slowest flit = 12074
Fragmentation average = 0
	minimum = 0
	maximum = 0
Injected packet rate average = 0.049625
	minimum = 0.034 (at node 9)
	maximum = 0.064 (at node 2)
Accepted packet rate average = 0.049375
	minimum = 0.032 (at node 8)
	maximum = 0.068 (at node 0)
Injected flit rate average = 0.049625
	minimum = 0.034 (at node 9)
	maximum = 0.064 (at node 2)
Accepted flit rate average= 0.049375
	minimum = 0.032 (at node 8)
	maximum = 0.068 (at node 0)
Injected packet length average = 1
Accepted packet length average = 1
Total in-flight flits = 12 (12 measured)
latency change    = 0.00796903
throughput change = 0.0151899
Class 0:
Packet latency average = 20.289
	minimum = 7
	maximum = 50
Network latency average = 20.289
	minimum = 7
	maximum = 50
Slowest packet = 12292
Flit latency average = 20.3452
	minimum = 7
	maximum = 50
Slowest flit = 12292
Fragmentation average = 0
	minimum = 0
	maximum = 0
Injected packet rate average = 0.04925
	minimum = 0.038 (at node 12)
	maximum = 0.061 (at node 15)
Accepted packet rate average = 0.0490625
	minimum = 0.037 (at node 8)
	maximum = 0.062 (at node 0)
Injected flit rate average = 0.04925
	minimum = 0.038 (at node 12)
	maximum = 0.061 (at node 15)
Accepted flit rate average= 0.0490625
	minimum = 0.037 (at node 8)
	maximum = 0.062 (at node 0)
Injected packet length average = 1
Accepted packet length average = 1
Total in-flight flits = 13 (13 measured)
latency change    = 0.0037481
throughput change = 0.00636943
Class 0:
Packet latency average = 20.1925
	minimum = 7
	maximum = 50
Network latency average = 20.1925
	minimum = 7
	maximum = 50
Slowest packet = 12292
Flit latency average = 20.2304
	minimum = 7
	maximum = 50
Slowest flit = 12292
Fragmentation average = 0
	minimum = 0
	maximum = 0
Injected packet rate average = 0.049625
	minimum = 0.038 (at node 0)
	maximum = 0.0593333 (at node 15)
Accepted packet rate average = 0.0495417
	minimum = 0.0393333 (at node 12)
	maximum = 0.062 (at node 0)
Injected flit rate average = 0.049625
	minimum = 0.038 (at node 0)
	maximum = 0.0593333 (at node 15)
Accepted flit rate average= 0.0495417
	minimum = 0.0393333 (at node 12)
	maximum = 0.062 (at node 0)
Injected packet length average = 1
Accepted packet length average = 1
Total in-flight flits = 12 (12 measured)
latency change    = 0.00477881
throughput change = 0.00967199
Draining all recorded packets ...
Draining remaining packets ...
Time taken is 3051 cycles
Class 0:
Packet latency average = 19.3077
	minimum = 7
	maximum = 41
Network latency average = 19.3077
	minimum = 7
	maximum = 41
Slowest packet = 12948
Flit latency average = 19.3077
	minimum = 7
	maximum = 41
Slowest flit = 12948
Fragmentation average = 0
	minimum = 0
	maximum = 0
Injected packet rate average = 0.046625
	minimum = 0.028 (at node 13)
	maximum = 0.062 (at node 5)
Accepted packet rate average = 0.0455
	minimum = 0.032 (at node 11)
	maximum = 0.058 (at node 6)
Injected flit rate average = 0.046625
	minimum = 0.028 (at node 13)
	maximum = 0.062 (at node 5)
Accepted flit rate average= 0.0455
	minimum = 0.032 (at node 11)
	maximum = 0.058 (at node 6)
Injected packet length average = 1
Accepted packet length average = 1
Total in-flight flits = 9 (0 measured)
latency change    = 1
throughput change = 1
Class 0:
Packet latency average = 19.7781
	minimum = 7
	maximum = 45
Network latency average = 19.7781
	minimum = 7
	maximum = 45
Slowest packet = 13422
Flit latency average = 19.7781
	minimum = 7
	maximum = 45
Slowest flit = 13422
Fragmentation average = 0
	minimum = 0
	maximum = 0
Injected packet rate average = 0.0495625
	minimum = 0.041 (at node 7)
	maximum = 0.058 (at node 0)
Accepted packet rate average = 0.0484375
	minimum = 0.035 (at node 2)
	maximum = 0.06 (at node 10)
Injected flit rate average = 0.0495625
	minimum = 0.041 (at node 7)
	maximum = 0.058 (at node 0)
Accepted flit rate average= 0.0484375
	minimum = 0.035 (at node 2)
	maximum = 0.06 (at node 10)
Injected packet length average = 1
Accepted packet length average = 1
Total in-flight flits = 18 (0 measured)
latency change    = 0.0237825
throughput change = 0.0606452
Class 0:
Packet latency average = 20.5655
	minimum = 7
	maximum = 47
Network latency average = 20.5655
	minimum = 7
	maximum = 47
Slowest packet = 13740
Flit latency average = 20.5655
	minimum = 7
	maximum = 47
Slowest flit = 13740
Fragmentation average = 0
	minimum = 0
	maximum = 0
Injected packet rate average = 0.044375
	minimum = 0.032 (at node 15)
	maximum = 0.062 (at node 12)
Accepted packet rate average = 0.044875
	minimum = 0.024 (at node 14)
	maximum = 0.06 (at node 10)
Injected flit rate average = 0.044375
	minimum = 0.032 (at node 15)
	maximum = 0.062 (at node 12)
Accepted flit rate average= 0.044875
	minimum = 0.024 (at node 14)
	maximum = 0.06 (at node 10)
Injected packet length average = 1
Accepted packet length average = 1
Total in-flight flits = 14 (0 measured)
latency change    = 0.0382873
throughput change = 0.0793872
Warmed up ...Time used is 1500 cycles
Class 0:
Packet latency average = 20.7382
	minimum = 7
	maximum = 51
Network latency average = 20.7382
	minimum = 7
	maximum = 51
Slowest packet = 14270
Flit latency average = 20.7803
	minimum = 7
	maximum = 51
Slowest flit = 14270
Fragmentation average = 0
	minimum = 0
	maximum = 0
Injected packet rate average = 0.05
	minimum = 0.03 (at node 10)
	maximum = 0.076 (at node 14)
Accepted packet rate average = 0.0495
	minimum = 0.03 (at node 14)
	maximum = 0.082 (at node 13)
Injected flit rate average = 0.05
	minimum = 0.03 (at node 10)
	maximum = 0.076 (at node 14)
Accepted flit rate average= 0.0495
	minimum = 0.03 (at node 14)
	maximum = 0.082 (at node 13)
Injected packet length average = 1
Accepted packet length average = 1
Total in-flight flits = 18 (18 measured)
latency change    = 0.00833053
throughput change = 0.0934343
Class 0:
Packet latency average = 20.6419
	minimum = 7
	maximum = 58
Network latency average = 20.6419
	minimum = 7
	maximum = 58
Slowest packet = 14721
Flit latency average = 20.6638
	minimum = 7
	maximum = 58
Slowest flit = 14721
Fragmentation average = 0
	minimum = 0
	maximum = 0
Injected packet rate average = 0.051625
	minimum = 0.04 (at node 6)
	maximum = 0.062 (at node 7)
Accepted packet rate average = 0.0513125
	minimum = 0.037 (at node 14)
	maximum = 0.07 (at node 13)
Injected flit rate average = 0.051625
	minimum = 0.04 (at node 6)
	maximum = 0.062 (at node 7)
Accepted flit rate average= 0.0513125
	minimum = 0.037 (at node 14)
	maximum = 0.07 (at node 13)
Injected packet length average = 1
Accepted packet length average = 1
Total in-flight flits = 19 (19 measured)
latency change    = 0.00466703
throughput change = 0.0353228
Class 0:
Packet latency average = 20.7859
	minimum = 7
	maximum = 58
Network latency average = 20.7859
	minimum = 7
	maximum = 58
Slowest packet = 14721
Flit latency average = 20.7989
	minimum = 7
	maximum = 58
Slowest flit = 14721
Fragmentation average = 0
	minimum = 0
	maximum = 0
Injected packet rate average = 0.0515
	minimum = 0.0433333 (at node 5)
	maximum = 0.0606667 (at node 4)
Accepted packet rate average = 0.0515833
	minimum = 0.0393333 (at node 6)
	maximum = 0.0633333 (at node 13)
Injected flit rate average = 0.0515
	minimum = 0.0433333 (at node 5)
	maximum = 0.0606667 (at node 4)
Accepted flit rate average= 0.0515833
	minimum = 0.0393333 (at node 6)
	maximum = 0.0633333 (at node 13)
Injected packet length average = 1
Accepted packet length average = 1
Total in-flight flits = 12 (12 measured)
latency change    = 0.00693085
throughput change = 0.0052504
Class 0:
Packet latency average = 20.6439
	minimum = 7
	maximum = 58
Network latency average = 20.6439
	minimum = 7
	maximum = 58
Slowest packet = 14721
Flit latency average = 20.6549
	minimum = 7
	maximum = 58
Slowest flit = 14721
Fragmentation average = 0
	minimum = 0
	maximum = 0
Injected packet rate average = 0.0515313
	minimum = 0.042 (at node 5)
	maximum = 0.06 (at node 7)
Accepted packet rate average = 0.0511563
	minimum = 0.04 (at node 6)
	maximum = 0.061 (at node 13)
Injected flit rate average = 0.0515313
	minimum = 0.042 (at node 5)
	maximum = 0.06 (at node 7)
Accepted flit rate average= 0.0511563
	minimum = 0.04 (at node 6)
	maximum = 0.061 (at node 13)
Injected packet length average = 1
Accepted packet length average = 1
Total in-flight flits = 26 (26 measured)
latency change    = 0.00688235
throughput change = 0.00834861
Draining all recorded packets ...
Draining remaining packets ...
Time taken is 3559 cycles
Class 0:
Packet latency average = 20.6378
	minimum = 7
	maximum = 44
Network latency average = 20.6378
	minimum = 7
	maximum = 44
Slowest packet = 15856
Flit latency average = 20.6378
	minimum = 7
	maximum = 44
Slowest flit = 15856
Fragmentation average = 0
	minimum = 0
	maximum = 0
Injected packet rate average = 0.049
	minimum = 0.04 (at node 11)
	maximum = 0.058 (at node 1)
Accepted packet rate average = 0.04625
	minimum = 0.032 (at node 10)
	maximum = 0.058 (at node 4)
Injected flit rate average = 0.049
	minimum = 0.04 (at node 11)
	maximum = 0.058 (at node 1)
Accepted flit rate average= 0.04625
	minimum = 0.032 (at node 10)
	maximum = 0.058 (at node 4)
Injected packet length average = 1
Accepted packet length average = 1
Total in-flight flits = 22 (0 measured)
latency change    = 1
throughput change = 1
Class 0:
Packet latency average = 21.0704
	minimum = 7
	maximum = 78
Network latency average = 21.0704
	minimum = 7
	maximum = 78
Slowest packet = 16270
Flit latency average = 21.0704
	minimum = 7
	maximum = 78
Slowest flit = 16270
Fragmentation average = 0
	minimum = 0
	maximum = 0
Injected packet rate average = 0.052
	minimum = 0.041 (at node 15)
	maximum = 0.06 (at node 7)
Accepted packet rate average = 0.050625
	minimum = 0.036 (at node 9)
	maximum = 0.067 (at node 6)
Injected flit rate average = 0.052
	minimum = 0.041 (at node 15)
	maximum = 0.06 (at node 7)
Accepted flit rate average= 0.050625
	minimum = 0.036 (at node 9)
	maximum = 0.067 (at node 6)
Injected packet length average = 1
Accepted packet length average = 1
Total in-flight flits = 22 (0 measured)
latency change    = 0.020528
throughput change = 0.0864198
Class 0:
Packet latency average = 20.9832
	minimum = 7
	maximum = 58
Network latency average = 20.9736
	minimum = 7
	maximum = 58
Slowest packet = 16584
Flit latency average = 20.9736
	minimum = 7
	maximum = 58
Slowest flit = 16584
Fragmentation average = 0
	minimum = 0
	maximum = 0
Injected packet rate average = 0.051375
	minimum = 0.026 (at node 5)
	maximum = 0.078 (at node 9)
Accepted packet rate average = 0.052
	minimum = 0.034 (at node 4)
	maximum = 0.064 (at node 1)
Injected flit rate average = 0.051375
	minimum = 0.026 (at node 5)
	maximum = 0.078 (at node 9)
Accepted flit rate average= 0.052
	minimum = 0.034 (at node 4)
	maximum = 0.064 (at node 1)
Injected packet length average = 1
Accepted packet length average = 1
Total in-flight flits = 17 (0 measured)
latency change    = 0.00415558
throughput change = 0.0264423
Warmed up ...Time used is 1500 cycles
Class 0:
Packet latency average = 20.9227
	minimum = 7
	maximum = 46
Network latency average = 20.9227
	minimum = 7
	maximum = 46
Slowest packet = 17224
Flit latency average = 21.0215
	minimum = 7
	maximum = 46
Slowest flit = 17224
Fragmentation average = 0
	minimum = 0
	maximum = 0
Injected packet rate average = 0.052625
	minimum = 0.032 (at node 11)
	maximum = 0.07 (at node 5)
Accepted packet rate average = 0.05225
	minimum = 0.042 (at node 9)
	maximum = 0.066 (at node 4)
Injected flit rate average = 0.052625
	minimum = 0.032 (at node 11)
	maximum = 0.07 (at node 5)
Accepted flit rate average= 0.05225
	minimum = 0.042 (at node 9)
	maximum = 0.066 (at node 4)
Injected packet length average = 1
Accepted packet length average = 1
Total in-flight flits = 20 (20 measured)
latency change    = 0.00289063
throughput change = 0.00478469
Class 0:
Packet latency average = 20.3313
	minimum = 7
	maximum = 51
Network latency average = 20.3313
	minimum = 7
	maximum = 51
Slowest packet = 17700
Flit latency average = 20.3939
	minimum = 7
	maximum = 51
Slowest flit = 17700
Fragmentation average = 0
	minimum = 0
	maximum = 0
Injected packet rate average = 0.0509375
	minimum = 0.038 (at node 11)
	maximum = 0.064 (at node 13)
Accepted packet rate average = 0.05125
	minimum = 0.038 (at node 9)
	maximum = 0.064 (at node 4)
Injected flit rate average = 0.0509375
	minimum = 0.038 (at node 11)
	maximum = 0.064 (at node 13)
Accepted flit rate average= 0.05125
	minimum = 0.038 (at node 9)
	maximum = 0.064 (at node 4)
Injected packet length average = 1
Accepted packet length average = 1
Total in-flight flits = 12 (12 measured)
latency change    = 0.02909
throughput change = 0.0195122
Class 0:
Packet latency average = 20.6615
	minimum = 7
	maximum = 52
Network latency average = 20.6615
	minimum = 7
	maximum = 52
Slowest packet = 17880
Flit latency average = 20.6985
	minimum = 7
	maximum = 52
Slowest flit = 17880
Fragmentation average = 0
	minimum = 0
	maximum = 0
Injected packet rate average = 0.0512917
	minimum = 0.0446667 (at node 1)
	maximum = 0.0606667 (at node 13)
Accepted packet rate average = 0.0515417
	minimum = 0.0426667 (at node 9)
	maximum = 0.058 (at node 3)
Injected flit rate average = 0.0512917
	minimum = 0.0446667 (at node 1)
	maximum = 0.0606667 (at node 13)
Accepted flit rate average= 0.0515417
	minimum = 0.0426667 (at node 9)
	maximum = 0.058 (at node 3)
Injected packet length average = 1
Accepted packet length average = 1
Total in-flight flits = 11 (11 measured)
latency change    = 0.0159823
throughput change = 0.00565885
Draining all recorded packets ...
Draining remaining packets ...
Time taken is 3046 cycles
Class 0:
Packet latency average = 20.1907
	minimum = 7
	maximum = 46
Network latency average = 20.1907
	minimum = 7
	maximum = 46
Slowest packet = 18518
Flit latency average = 20.1907
	minimum = 7
	maximum = 46
Slowest flit = 18518
Fragmentation average = 0
	minimum = 0
	maximum = 0
Injected packet rate average = 0.051125
	minimum = 0.038 (at node 2)
	maximum = 0.064 (at node 7)
Accepted packet rate average = 0.0485
	minimum = 0.03 (at node 2)
	maximum = 0.068 (at node 11)
Injected flit rate average = 0.051125
	minimum = 0.038 (at node 2)
	maximum = 0.064 (at node 7)
Accepted flit rate average= 0.0485
	minimum = 0.03 (at node 2)
	maximum = 0.068 (at node 11)
Injected packet length average = 1
Accepted packet length average = 1
Total in-flight flits = 21 (0 measured)
latency change    = 1
throughput change = 1
Class 0:
Packet latency average = 20.6081
	minimum = 7
	maximum = 62
Network latency average = 20.6081
	minimum = 7
	maximum = 62
Slowest packet = 18687
Flit latency average = 20.6081
	minimum = 7
	maximum = 62
Slowest flit = 18687
Fragmentation average = 0
	minimum = 0
	maximum = 0
Injected packet rate average = 0.04725
	minimum = 0.039 (at node 0)
	maximum = 0.058 (at node 10)
Accepted packet rate average = 0.04625
	minimum = 0.035 (at node 2)
	maximum = 0.069 (at node 11)
Injected flit rate average = 0.04725
	minimum = 0.039 (at node 0)
	maximum = 0.058 (at node 10)
Accepted flit rate average= 0.04625
	minimum = 0.035 (at node 2)
	maximum = 0.069 (at node 11)
Injected packet length average = 1
Accepted packet length average = 1
Total in-flight flits = 16 (0 measured)
latency change    = 0.0202535
throughput change = 0.0486486
Class 0:
Packet latency average = 20.4604
	minimum = 7
	maximum = 58
Network latency average = 20.4604
	minimum = 7
	maximum = 58
Slowest packet = 19042
Flit latency average = 20.4604
	minimum = 7
	maximum = 58
Slowest flit = 19042
Fragmentation average = 0
	minimum = 0
	maximum = 0
Injected packet rate average = 0.052
	minimum = 0.04 (at node 6)
	maximum = 0.066 (at node 3)
Accepted packet rate average = 0.052125
	minimum = 0.032 (at node 12)
	maximum = 0.066 (at node 4)
Injected flit rate average = 0.052
	minimum = 0.04 (at node 6)
	maximum = 0.066 (at node 3)
Accepted flit rate average= 0.052125
	minimum = 0.032 (at node 12)
	maximum = 0.066 (at node 4)
Injected packet length average = 1
Accepted packet length average = 1
Total in-flight flits = 15 (0 measured)
latency change    = 0.00721766
throughput change = 0.11271
Warmed up ...Time used is 1500 cycles
Class 0:
Packet latency average = 19.9262
	minimum = 7
	maximum = 64
Network latency average = 19.9262
	minimum = 7
	maximum = 64
Slowest packet = 19591
Flit latency average = 20.1127
	minimum = 7
	maximum = 64
Slowest flit = 19591
Fragmentation average = 0
	minimum = 0
	maximum = 0
Injected packet rate average = 0.051125
	minimum = 0.038 (at node 14)
	maximum = 0.064 (at node 12)
Accepted packet rate average = 0.051
	minimum = 0.038 (at node 11)
	maximum = 0.066 (at node 9)
Injected flit rate average = 0.051125
	minimum = 0.038 (at node 14)
	maximum = 0.064 (at node 12)
Accepted flit rate average= 0.051
	minimum = 0.038 (at node 11)
	maximum = 0.066 (at node 9)
Injected packet length average = 1
Accepted packet length average = 1
Total in-flight flits = 16 (16 measured)
latency change    = 0.0268101
throughput change = 0.0220588
Class 0:
Packet latency average = 20.0414
	minimum = 7
	maximum = 64
Network latency average = 20.0414
	minimum = 7
	maximum = 64
Slowest packet = 19591
Flit latency average = 20.1328
	minimum = 7
	maximum = 64
Slowest flit = 19591
Fragmentation average = 0
	minimum = 0
	maximum = 0
Injected packet rate average = 0.050625
	minimum = 0.033 (at node 15)
	maximum = 0.064 (at node 13)
Accepted packet rate average = 0.0508125
	minimum = 0.041 (at node 10)
	maximum = 0.064 (at node 4)
Injected flit rate average = 0.050625
	minimum = 0.033 (at node 15)
	maximum = 0.064 (at node 13)
Accepted flit rate average= 0.0508125
	minimum = 0.041 (at node 10)
	maximum = 0.064 (at node 4)
Injected packet length average = 1
Accepted packet length average = 1
Total in-flight flits = 12 (12 measured)
latency change    = 0.00574536
throughput change = 0.00369004
Class 0:
Packet latency average = 20.0136
	minimum = 7
	maximum = 64
Network latency average = 20.0136
	minimum = 7
	maximum = 64
Slowest packet = 19591
Flit latency average = 20.0764
	minimum = 7
	maximum = 64
Slowest flit = 19591
Fragmentation average = 0
	minimum = 0
	maximum = 0
Injected packet rate average = 0.0495833
	minimum = 0.036 (at node 15)
	maximum = 0.0626667 (at node 11)
Accepted packet rate average = 0.049625
	minimum = 0.0413333 (at node 2)
	maximum = 0.0633333 (at node 4)
Injected flit rate average = 0.0495833
	minimum = 0.036 (at node 15)
	maximum = 0.0626667 (at node 11)
Accepted flit rate average= 0.049625
	minimum = 0.0413333 (at node 2)
	maximum = 0.0633333 (at node 4)
Injected packet length average = 1
Accepted packet length average = 1
Total in-flight flits = 14 (14 measured)
latency change    = 0.00138645
throughput change = 0.0239295
Draining all recorded packets ...
Draining remaining packets ...
Time taken is 3052 cycles
Class 0:
Packet latency average = 20.163
	minimum = 7
	maximum = 46
Network latency average = 20.163
	minimum = 7
	maximum = 46
Slowest packet = 20853
Flit latency average = 20.163
	minimum = 7
	maximum = 46
Slowest flit = 20853
Fragmentation average = 0
	minimum = 0
	maximum = 0
Injected packet rate average = 0.04825
	minimum = 0.036 (at node 2)
	maximum = 0.068 (at node 7)
Accepted packet rate average = 0.046
	minimum = 0.034 (at node 0)
	maximum = 0.066 (at node 14)
Injected flit rate average = 0.04825
	minimum = 0.036 (at node 2)
	maximum = 0.068 (at node 7)
Accepted flit rate average= 0.046
	minimum = 0.034 (at node 0)
	maximum = 0.066 (at node 14)
Injected packet length average = 1
Accepted packet length average = 1
Total in-flight flits = 18 (0 measured)
latency change    = 1
throughput change = 1
Class 0:
Packet latency average = 20.5433
	minimum = 7
	maximum = 47
Network latency average = 20.5433
	minimum = 7
	maximum = 47
Slowest packet = 21022
Flit latency average = 20.5433
	minimum = 7
	maximum = 47
Slowest flit = 21022
Fragmentation average = 0
	minimum = 0
	maximum = 0
Injected packet rate average = 0.0478125
	minimum = 0.036 (at node 6)
	maximum = 0.072 (at node 7)
Accepted packet rate average = 0.0469375
	minimum = 0.032 (at node 0)
	maximum = 0.063 (at node 2)
Injected flit rate average = 0.0478125
	minimum = 0.036 (at node 6)
	maximum = 0.072 (at node 7)
Accepted flit rate average= 0.0469375
	minimum = 0.032 (at node 0)
	maximum = 0.063 (at node 2)
Injected packet length average = 1
Accepted packet length average = 1
Total in-flight flits = 14 (0 measured)
latency change    = 0.0185088
throughput change = 0.0199734
Class 0:
Packet latency average = 21.9086
	minimum = 7
	maximum = 71
Network latency average = 21.8858
	minimum = 7
	maximum = 71
Slowest packet = 21649
Flit latency average = 21.8858
	minimum = 7
	maximum = 71
Slowest flit = 21649
Fragmentation average = 0
	minimum = 0
	maximum = 0
Injected packet rate average = 0.048875
	minimum = 0.026 (at node 5)
	maximum = 0.064 (at node 4)
Accepted packet rate average = 0.04925
	minimum = 0.038 (at node 8)
	maximum = 0.066 (at node 4)
Injected flit rate average = 0.048875
	minimum = 0.026 (at node 5)
	maximum = 0.064 (at node 4)
Accepted flit rate average= 0.04925
	minimum = 0.038 (at node 8)
	maximum = 0.066 (at node 4)
Injected packet length average = 1
Accepted packet length average = 1
Total in-flight flits = 11 (0 measured)
latency change    = 0.0623204
throughput change = 0.0469543
Warmed up ...Time used is 1500 cycles
Class 0:
Packet latency average = 19.9666
	minimum = 7
	maximum = 44
Network latency average = 19.9666
	minimum = 7
	maximum = 44
Slowest packet = 21798
Flit latency average = 19.91
	minimum = 7
	maximum = 44
Slowest flit = 21798
Fragmentation average = 0
	minimum = 0
	maximum = 0
Injected packet rate average = 0.050125
	minimum = 0.036 (at node 7)
	maximum = 0.066 (at node 5)
Accepted packet rate average = 0.05
	minimum = 0.038 (at node 15)
	maximum = 0.062 (at node 3)
Injected flit rate average = 0.050125
	minimum = 0.036 (at node 7)
	maximum = 0.066 (at node 5)
Accepted flit rate average= 0.05
	minimum = 0.038 (at node 15)
	maximum = 0.062 (at node 3)
Injected packet length average = 1
Accepted packet length average = 1
Total in-flight flits = 12 (12 measured)
latency change    = 0.0972649
throughput change = 0.015
Class 0:
Packet latency average = 20.2423
	minimum = 7
	maximum = 51
Network latency average = 20.2423
	minimum = 7
	maximum = 51
Slowest packet = 22351
Flit latency average = 20.2097
	minimum = 7
	maximum = 51
Slowest flit = 22351
Fragmentation average = 0
	minimum = 0
	maximum = 0
Injected packet rate average = 0.04925
	minimum = 0.037 (at node 7)
	maximum = 0.059 (at node 12)
Accepted packet rate average = 0.0491875
	minimum = 0.038 (at node 5)
	maximum = 0.059 (at node 3)
Injected flit rate average = 0.04925
	minimum = 0.037 (at node 7)
	maximum = 0.059 (at node 12)
Accepted flit rate average= 0.0491875
	minimum = 0.038 (at node 5)
	maximum = 0.059 (at node 3)
Injected packet length average = 1
Accepted packet length average = 1
Total in-flight flits = 12 (12 measured)
latency change    = 0.0136194
throughput change = 0.0165184
Class 0:
Packet latency average = 20.0443
	minimum = 7
	maximum = 51
Network latency average = 20.0443
	minimum = 7
	maximum = 51
Slowest packet = 22351
Flit latency average = 20.0249
	minimum = 7
	maximum = 51
Slowest flit = 22351
Fragmentation average = 0
	minimum = 0
	maximum = 0
Injected packet rate average = 0.0502917
	minimum = 0.0406667 (at node 2)
	maximum = 0.0566667 (at node 4)
Accepted packet rate average = 0.0502917
	minimum = 0.0406667 (at node 12)
	maximum = 0.06 (at node 9)
Injected flit rate average = 0.0502917
	minimum = 0.0406667 (at node 2)
	maximum = 0.0566667 (at node 4)
Accepted flit rate average= 0.0502917
	minimum = 0.0406667 (at node 12)
	maximum = 0.06 (at node 9)
Injected packet length average = 1
Accepted packet length average = 1
Total in-flight flits = 11 (11 measured)
latency change    = 0.0098758
throughput change = 0.0219553
Class 0:
Packet latency average = 20.0843
	minimum = 7
	maximum = 53
Network latency average = 20.0843
	minimum = 7
	maximum = 53
Slowest packet = 23111
Flit latency average = 20.0692
	minimum = 7
	maximum = 53
Slowest flit = 23111
Fragmentation average = 0
	minimum = 0
	maximum = 0
Injected packet rate average = 0.0491875
	minimum = 0.0365 (at node 7)
	maximum = 0.0565 (at node 9)
Accepted packet rate average = 0.04925
	minimum = 0.039 (at node 12)
	maximum = 0.06 (at node 9)
Injected flit rate average = 0.0491875
	minimum = 0.0365 (at node 7)
	maximum = 0.0565 (at node 9)
Accepted flit rate average= 0.04925
	minimum = 0.039 (at node 12)
	maximum = 0.06 (at node 9)
Injected packet length average = 1
Accepted packet length average = 1
Total in-flight flits = 9 (9 measured)
latency change    = 0.00199313
throughput change = 0.0211506
Draining all recorded packets ...
Draining remaining packets ...
Time taken is 3557 cycles
Class 0:
Packet latency average = 20.401
	minimum = 7
	maximum = 52
Network latency average = 20.401
	minimum = 7
	maximum = 52
Slowest packet = 23709
Flit latency average = 20.401
	minimum = 7
	maximum = 52
Slowest flit = 23709
Fragmentation average = 0
	minimum = 0
	maximum = 0
Injected packet rate average = 0.05025
	minimum = 0.04 (at node 9)
	maximum = 0.064 (at node 2)
Accepted packet rate average = 0.04925
	minimum = 0.034 (at node 0)
	maximum = 0.06 (at node 9)
Injected flit rate average = 0.05025
	minimum = 0.04 (at node 9)
	maximum = 0.064 (at node 2)
Accepted flit rate average= 0.04925
	minimum = 0.034 (at node 0)
	maximum = 0.06 (at node 9)
Injected packet length average = 1
Accepted packet length average = 1
Total in-flight flits = 8 (0 measured)
latency change    = 1
throughput change = 1
Class 0:
Packet latency average = 20.3953
	minimum = 7
	maximum = 52
Network latency average = 20.3953
	minimum = 7
	maximum = 52
Slowest packet = 23709
Flit latency average = 20.3953
	minimum = 7
	maximum = 52
Slowest flit = 23709
Fragmentation average = 0
	minimum = 0
	maximum = 0
Injected packet rate average = 0.0484375
	minimum = 0.035 (at node 9)
	maximum = 0.058 (at node 14)
Accepted packet rate average = 0.0474375
	minimum = 0.031 (at node 15)
	maximum = 0.059 (at node 1)
Injected flit rate average = 0.0484375
	minimum = 0.035 (at node 9)
	maximum = 0.058 (at node 14)
Accepted flit rate average= 0.0474375
	minimum = 0.031 (at node 15)
	maximum = 0.059 (at node 1)
Injected packet length average = 1
Accepted packet length average = 1
Total in-flight flits = 16 (0 measured)
latency change    = 0.000282336
throughput change = 0.0382082
Class 0:
Packet latency average = 21.6567
	minimum = 7
	maximum = 56
Network latency average = 21.6567
	minimum = 7
	maximum = 56
Slowest packet = 24172
Flit latency average = 21.6567
	minimum = 7
	maximum = 56
Slowest flit = 24172
Fragmentation average = 0
	minimum = 0
	maximum = 0
Injected packet rate average = 0.05025
	minimum = 0.038 (at node 1)
	maximum = 0.064 (at node 3)
Accepted packet rate average = 0.05025
	minimum = 0.03 (at node 6)
	maximum = 0.068 (at node 0)
Injected flit rate average = 0.05025
	minimum = 0.038 (at node 1)
	maximum = 0.064 (at node 3)
Accepted flit rate average= 0.05025
	minimum = 0.03 (at node 6)
	maximum = 0.068 (at node 0)
Injected packet length average = 1
Accepted packet length average = 1
Total in-flight flits = 16 (0 measured)
latency change    = 0.058248
throughput change = 0.0559701
Warmed up ...Time used is 1500 cycles
Class 0:
Packet latency average = 20.2935
	minimum = 7
	maximum = 45
Network latency average = 20.2935
	minimum = 7
	maximum = 45
Slowest packet = 24587
Flit latency average = 20.4306
	minimum = 7
	maximum = 45
Slowest flit = 24587
Fragmentation average = 0
	minimum = 0
	maximum = 0
Injected packet rate average = 0.051625
	minimum = 0.032 (at node 10)
	maximum = 0.074 (at node 14)
Accepted packet rate average = 0.05225
	minimum = 0.036 (at node 5)
	maximum = 0.074 (at node 10)
Injected flit rate average = 0.051625
	minimum = 0.032 (at node 10)
	maximum = 0.074 (at node 14)
Accepted flit rate average= 0.05225
	minimum = 0.036 (at node 5)
	maximum = 0.074 (at node 10)
Injected packet length average = 1
Accepted packet length average = 1
Total in-flight flits = 11 (11 measured)
latency change    = 0.0671733
throughput change = 0.0382775
Class 0:
Packet latency average = 20.0586
	minimum = 7
	maximum = 46
Network latency average = 20.0586
	minimum = 7
	maximum = 46
Slowest packet = 25181
Flit latency average = 20.1333
	minimum = 7
	maximum = 46
Slowest flit = 25181
Fragmentation average = 0
	minimum = 0
	maximum = 0
Injected packet rate average = 0.0513125
	minimum = 0.046 (at node 2)
	maximum = 0.06 (at node 14)
Accepted packet rate average = 0.051125
	minimum = 0.039 (at node 4)
	maximum = 0.067 (at node 10)
Injected flit rate average = 0.0513125
	minimum = 0.046 (at node 2)
	maximum = 0.06 (at node 14)
Accepted flit rate average= 0.051125
	minimum = 0.039 (at node 4)
	maximum = 0.067 (at node 10)
Injected packet length average = 1
Accepted packet length average = 1
Total in-flight flits = 19 (19 measured)
latency change    = 0.0117121
throughput change = 0.0220049
Class 0:
Packet latency average = 20.2043
	minimum = 7
	maximum = 48
Network latency average = 20.2043
	minimum = 7
	maximum = 48
Slowest packet = 25629
Flit latency average = 20.2518
	minimum = 7
	maximum = 48
Slowest flit = 25629
Fragmentation average = 0
	minimum = 0
	maximum = 0
Injected packet rate average = 0.051375
	minimum = 0.0446667 (at node 8)
	maximum = 0.0613333 (at node 14)
Accepted packet rate average = 0.0514583
	minimum = 0.0413333 (at node 7)
	maximum = 0.0633333 (at node 10)
Injected flit rate average = 0.051375
	minimum = 0.0446667 (at node 8)
	maximum = 0.0613333 (at node 14)
Accepted flit rate average= 0.0514583
	minimum = 0.0413333 (at node 7)
	maximum = 0.0633333 (at node 10)
Injected packet length average = 1
Accepted packet length average = 1
Total in-flight flits = 14 (14 measured)
latency change    = 0.00720948
throughput change = 0.00647773
Class 0:
Packet latency average = 20.0953
	minimum = 7
	maximum = 48
Network latency average = 20.0953
	minimum = 7
	maximum = 48
Slowest packet = 25629
Flit latency average = 20.1322
	minimum = 7
	maximum = 48
Slowest flit = 25629
Fragmentation average = 0
	minimum = 0
	maximum = 0
Injected packet rate average = 0.0512188
	minimum = 0.0445 (at node 8)
	maximum = 0.059 (at node 14)
Accepted packet rate average = 0.0513125
	minimum = 0.0425 (at node 7)
	maximum = 0.0605 (at node 3)
Injected flit rate average = 0.0512188
	minimum = 0.0445 (at node 8)
	maximum = 0.059 (at node 14)
Accepted flit rate average= 0.0513125
	minimum = 0.0425 (at node 7)
	maximum = 0.0605 (at node 3)
Injected packet length average = 1
Accepted packet length average = 1
Total in-flight flits = 13 (13 measured)
latency change    = 0.00542115
throughput change = 0.00284206
Draining all recorded packets ...
Draining remaining packets ...
Time taken is 3562 cycles
Class 0:
Packet latency average = 21.2507
	minimum = 7
	maximum = 69
Network latency average = 21.2507
	minimum = 7
	maximum = 69
Slowest packet = 26380
Flit latency average = 21.2507
	minimum = 7
	maximum = 69
Slowest flit = 26380
Fragmentation average = 0
	minimum = 0
	maximum = 0
Injected packet rate average = 0.050625
	minimum = 0.032 (at node 9)
	maximum = 0.072 (at node 14)
Accepted packet rate average = 0.047875
	minimum = 0.036 (at node 1)
	maximum = 0.066 (at node 11)
Injected flit rate average = 0.050625
	minimum = 0.032 (at node 9)
	maximum = 0.072 (at node 14)
Accepted flit rate average= 0.047875
	minimum = 0.036 (at node 1)
	maximum = 0.066 (at node 11)
Injected packet length average = 1
Accepted packet length average = 1
Total in-flight flits = 22 (0 measured)
latency change    = 1
throughput change = 1
Class 0:
Packet latency average = 20.791
	minimum = 7
	maximum = 69
Network latency average = 20.791
	minimum = 7
	maximum = 69
Slowest packet = 26380
Flit latency average = 20.791
	minimum = 7
	maximum = 69
Slowest flit = 26380
Fragmentation average = 0
	minimum = 0
	maximum = 0
Injected packet rate average = 0.0493125
	minimum = 0.034 (at node 4)
	maximum = 0.062 (at node 14)
Accepted packet rate average = 0.04875
	minimum = 0.035 (at node 14)
	maximum = 0.062 (at node 11)
Injected flit rate average = 0.0493125
	minimum = 0.034 (at node 4)
	maximum = 0.062 (at node 14)
Accepted flit rate average= 0.04875
	minimum = 0.035 (at node 14)
	maximum = 0.062 (at node 11)
Injected packet length average = 1
Accepted packet length average = 1
Total in-flight flits = 9 (0 measured)
latency change    = 0.022107
throughput change = 0.0179487
Class 0:
Packet latency average = 20.6477
	minimum = 7
	maximum = 48
Network latency average = 20.6477
	minimum = 7
	maximum = 48
Slowest packet = 27082
Flit latency average = 20.6477
	minimum = 7
	maximum = 48
Slowest flit = 27082
Fragmentation average = 0
	minimum = 0
	maximum = 0
Injected packet rate average = 0.04725
	minimum = 0.038 (at node 6)
	maximum = 0.064 (at node 12)
Accepted packet rate average = 0.046125
	minimum = 0.032 (at node 13)
	maximum = 0.06 (at node 4)
Injected flit rate average = 0.04725
	minimum = 0.038 (at node 6)
	maximum = 0.064 (at node 12)
Accepted flit rate average= 0.046125
	minimum = 0.032 (at node 13)
	maximum = 0.06 (at node 4)
Injected packet length average = 1
Accepted packet length average = 1
Total in-flight flits = 18 (0 measured)
latency change    = 0.00694165
throughput change = 0.0569106
Warmed up ...Time used is 1500 cycles
Class 0:
Packet latency average = 20.9273
	minimum = 7
	maximum = 73
Network latency average = 20.9273
	minimum = 7
	maximum = 73
Slowest packet = 27394
Flit latency average = 20.9752
	minimum = 7
	maximum = 73
Slowest flit = 27394
Fragmentation average = 0
	minimum = 0
	maximum = 0
Injected packet rate average = 0.04925
	minimum = 0.038 (at node 5)
	maximum = 0.066 (at node 9)
Accepted packet rate average = 0.050375
	minimum = 0.028 (at node 4)
	maximum = 0.07 (at node 7)
Injected flit rate average = 0.04925
	minimum = 0.038 (at node 5)
	maximum = 0.066 (at node 9)
Accepted flit rate average= 0.050375
	minimum = 0.028 (at node 4)
	maximum = 0.07 (at node 7)
Injected packet length average = 1
Accepted packet length average = 1
Total in-flight flits = 9 (9 measured)
latency change    = 0.0133594
throughput change = 0.0843672
Class 0:
Packet latency average = 20.8068
	minimum = 7
	maximum = 77
Network latency average = 20.8068
	minimum = 7
	maximum = 77
Slowest packet = 28112
Flit latency average = 20.8325
	minimum = 7
	maximum = 77
Slowest flit = 28112
Fragmentation average = 0
	minimum = 0
	maximum = 0
Injected packet rate average = 0.05225
	minimum = 0.042 (at node 3)
	maximum = 0.063 (at node 9)
Accepted packet rate average = 0.05225
	minimum = 0.034 (at node 1)
	maximum = 0.061 (at node 14)
Injected flit rate average = 0.05225
	minimum = 0.042 (at node 3)
	maximum = 0.063 (at node 9)
Accepted flit rate average= 0.05225
	minimum = 0.034 (at node 1)
	maximum = 0.061 (at node 14)
Injected packet length average = 1
Accepted packet length average = 1
Total in-flight flits = 18 (18 measured)
latency change    = 0.00578784
throughput change = 0.0358852
Class 0:
Packet latency average = 20.7268
	minimum = 7
	maximum = 77
Network latency average = 20.7268
	minimum = 7
	maximum = 77
Slowest packet = 28112
Flit latency average = 20.7452
	minimum = 7
	maximum = 77
Slowest flit = 28112
Fragmentation average = 0
	minimum = 0
	maximum = 0
Injected packet rate average = 0.0514583
	minimum = 0.0433333 (at node 3)
	maximum = 0.0666667 (at node 9)
Accepted packet rate average = 0.052
	minimum = 0.04 (at node 1)
	maximum = 0.0633333 (at node 14)
Injected flit rate average = 0.0514583
	minimum = 0.0433333 (at node 3)
	maximum = 0.0666667 (at node 9)
Accepted flit rate average= 0.052
	minimum = 0.04 (at node 1)
	maximum = 0.0633333 (at node 14)
Injected packet length average = 1
Accepted packet length average = 1
Total in-flight flits = 5 (5 measured)
latency change    = 0.00386054
throughput change = 0.00480769
Class 0:
Packet latency average = 20.5417
	minimum = 7
	maximum = 77
Network latency average = 20.5417
	minimum = 7
	maximum = 77
Slowest packet = 28112
Flit latency average = 20.5579
	minimum = 7
	maximum = 77
Slowest flit = 28112
Fragmentation average = 0
	minimum = 0
	maximum = 0
Injected packet rate average = 0.0509063
	minimum = 0.046 (at node 2)
	maximum = 0.0625 (at node 9)
Accepted packet rate average = 0.05075
	minimum = 0.0425 (at node 1)
	maximum = 0.0585 (at node 13)
Injected flit rate average = 0.0509063
	minimum = 0.046 (at node 2)
	maximum = 0.0625 (at node 9)
Accepted flit rate average= 0.05075
	minimum = 0.0425 (at node 1)
	maximum = 0.0585 (at node 13)
Injected packet length average = 1
Accepted packet length average = 1
Total in-flight flits = 23 (23 measured)
latency change    = 0.00901145
throughput change = 0.0246305
Draining all recorded packets ...
Draining remaining packets ...
Time taken is 3595 cycles
Class 0:
Packet latency average = 20.4874
	minimum = 7
	maximum = 56
Network latency average = 20.4874
	minimum = 7
	maximum = 56
Slowest packet = 29318
Flit latency average = 20.4874
	minimum = 7
	maximum = 56
Slowest flit = 29318
Fragmentation average = 0
	minimum = 0
	maximum = 0
Injected packet rate average = 0.046375
	minimum = 0.028 (at node 1)
	maximum = 0.072 (at node 4)
Accepted packet rate average = 0.044625
	minimum = 0.034 (at node 1)
	maximum = 0.062 (at node 9)
Injected flit rate average = 0.046375
	minimum = 0.028 (at node 1)
	maximum = 0.072 (at node 4)
Accepted flit rate average= 0.044625
	minimum = 0.034 (at node 1)
	maximum = 0.062 (at node 9)
Injected packet length average = 1
Accepted packet length average = 1
Total in-flight flits = 14 (0 measured)
latency change    = 1
throughput change = 1
Class 0:
Packet latency average = 20.7262
	minimum = 7
	maximum = 56
Network latency average = 20.7262
	minimum = 7
	maximum = 56
Slowest packet = 29318
Flit latency average = 20.7262
	minimum = 7
	maximum = 56
Slowest flit = 29318
Fragmentation average = 0
	minimum = 0
	maximum = 0
Injected packet rate average = 0.0490625
	minimum = 0.035 (at node 5)
	maximum = 0.069 (at node 4)
Accepted packet rate average = 0.0479375
	minimum = 0.039 (at node 1)
	maximum = 0.059 (at node 10)
Injected flit rate average = 0.0490625
	minimum = 0.035 (at node 5)
	maximum = 0.069 (at node 4)
Accepted flit rate average= 0.0479375
	minimum = 0.039 (at node 1)
	maximum = 0.059 (at node 10)
Injected packet length average = 1
Accepted packet length average = 1
Total in-flight flits = 18 (0 measured)
latency change    = 0.0115222
throughput change = 0.0691004
Class 0:
Packet latency average = 19.9686
	minimum = 7
	maximum = 54
Network latency average = 19.9686
	minimum = 7
	maximum = 54
Slowest packet = 29816
Flit latency average = 19.9686
	minimum = 7
	maximum = 54
Slowest flit = 29816
Fragmentation average = 0
	minimum = 0
	maximum = 0
Injected packet rate average = 0.048125
	minimum = 0.034 (at node 2)
	maximum = 0.06 (at node 3)
Accepted packet rate average = 0.04775
	minimum = 0.034 (at node 12)
	maximum = 0.064 (at node 15)
Injected flit rate average = 0.048125
	minimum = 0.034 (at node 2)
	maximum = 0.06 (at node 3)
Accepted flit rate average= 0.04775
	minimum = 0.034 (at node 12)
	maximum = 0.064 (at node 15)
Injected packet length average = 1
Accepted packet length average = 1
Total in-flight flits = 21 (0 measured)
latency change    = 0.0379406
throughput change = 0.0039267
Warmed up ...Time used is 1500 cycles
Class 0:
Packet latency average = 20.5061
	minimum = 7
	maximum = 51
Network latency average = 20.5061
	minimum = 7
	maximum = 51
Slowest packet = 30368
Flit latency average = 20.7407
	minimum = 7
	maximum = 52
Slowest flit = 30217
Fragmentation average = 0
	minimum = 0
	maximum = 0
Injected packet rate average = 0.05325
	minimum = 0.032 (at node 6)
	maximum = 0.068 (at node 10)
Accepted packet rate average = 0.0535
	minimum = 0.036 (at node 0)
	maximum = 0.078 (at node 14)
Injected flit rate average = 0.05325
	minimum = 0.032 (at node 6)
	maximum = 0.068 (at node 10)
Accepted flit rate average= 0.0535
	minimum = 0.036 (at node 0)
	maximum = 0.078 (at node 14)
Injected packet length average = 1
Accepted packet length average = 1
Total in-flight flits = 19 (19 measured)
latency change    = 0.0262144
throughput change = 0.107477
Class 0:
Packet latency average = 20.2576
	minimum = 7
	maximum = 51
Network latency average = 20.2576
	minimum = 7
	maximum = 51
Slowest packet = 30368
Flit latency average = 20.3827
	minimum = 7
	maximum = 52
Slowest flit = 30217
Fragmentation average = 0
	minimum = 0
	maximum = 0
Injected packet rate average = 0.052625
	minimum = 0.044 (at node 6)
	maximum = 0.059 (at node 2)
Accepted packet rate average = 0.05275
	minimum = 0.044 (at node 7)
	maximum = 0.072 (at node 14)
Injected flit rate average = 0.052625
	minimum = 0.044 (at node 6)
	maximum = 0.059 (at node 2)
Accepted flit rate average= 0.05275
	minimum = 0.044 (at node 7)
	maximum = 0.072 (at node 14)
Injected packet length average = 1
Accepted packet length average = 1
Total in-flight flits = 19 (19 measured)
latency change    = 0.0122694
throughput change = 0.014218
Class 0:
Packet latency average = 20.0279
	minimum = 7
	maximum = 51
Network latency average = 20.0279
	minimum = 7
	maximum = 51
Slowest packet = 30368
Flit latency average = 20.117
	minimum = 7
	maximum = 52
Slowest flit = 30217
Fragmentation average = 0
	minimum = 0
	maximum = 0
Injected packet rate average = 0.0514167
	minimum = 0.044 (at node 15)
	maximum = 0.0606667 (at node 11)
Accepted packet rate average = 0.051625
	minimum = 0.0453333 (at node 0)
	maximum = 0.062 (at node 14)
Injected flit rate average = 0.0514167
	minimum = 0.044 (at node 15)
	maximum = 0.0606667 (at node 11)
Accepted flit rate average= 0.051625
	minimum = 0.0453333 (at node 0)
	maximum = 0.062 (at node 14)
Injected packet length average = 1
Accepted packet length average = 1
Total in-flight flits = 16 (16 measured)
latency change    = 0.011468
throughput change = 0.0217918
Class 0:
Packet latency average = 20.0231
	minimum = 7
	maximum = 51
Network latency average = 20.0231
	minimum = 7
	maximum = 51
Slowest packet = 30368
Flit latency average = 20.0912
	minimum = 7
	maximum = 52
Slowest flit = 30217
Fragmentation average = 0
	minimum = 0
	maximum = 0
Injected packet rate average = 0.0507187
	minimum = 0.0445 (at node 2)
	maximum = 0.0615 (at node 11)
Accepted packet rate average = 0.0507187
	minimum = 0.0455 (at node 7)
	maximum = 0.0605 (at node 14)
Injected flit rate average = 0.0507187
	minimum = 0.0445 (at node 2)
	maximum = 0.0615 (at node 11)
Accepted flit rate average= 0.0507187
	minimum = 0.0455 (at node 7)
	maximum = 0.0605 (at node 14)
Injected packet length average = 1
Accepted packet length average = 1
Total in-flight flits = 21 (21 measured)
latency change    = 0.000240646
throughput change = 0.0178681
Draining all recorded packets ...
Draining remaining packets ...
Time taken is 3568 cycles
Class 0:
Packet latency average = 19.9532
	minimum = 7
	maximum = 46
Network latency average = 19.9532
	minimum = 7
	maximum = 46
Slowest packet = 31931
Flit latency average = 19.9532
	minimum = 7
	maximum = 46
Slowest flit = 31931
Fragmentation average = 0
	minimum = 0
	maximum = 0
Injected packet rate average = 0.047625
	minimum = 0.036 (at node 1)
	maximum = 0.078 (at node 14)
Accepted packet rate average = 0.045375
	minimum = 0.024 (at node 0)
	maximum = 0.064 (at node 11)
Injected flit rate average = 0.047625
	minimum = 0.036 (at node 1)
	maximum = 0.078 (at node 14)
Accepted flit rate average= 0.045375
	minimum = 0.024 (at node 0)
	maximum = 0.064 (at node 11)
Injected packet length average = 1
Accepted packet length average = 1
Total in-flight flits = 18 (0 measured)
latency change    = 1
throughput change = 1
Class 0:
Packet latency average = 20.6462
	minimum = 7
	maximum = 50
Network latency average = 20.6462
	minimum = 7
	maximum = 50
Slowest packet = 32343
Flit latency average = 20.6462
	minimum = 7
	maximum = 50
Slowest flit = 32343
Fragmentation average = 0
	minimum = 0
	maximum = 0
Injected packet rate average = 0.0509375
	minimum = 0.039 (at node 11)
	maximum = 0.064 (at node 2)
Accepted packet rate average = 0.0498125
	minimum = 0.036 (at node 7)
	maximum = 0.066 (at node 12)
Injected flit rate average = 0.0509375
	minimum = 0.039 (at node 11)
	maximum = 0.064 (at node 2)
Accepted flit rate average= 0.0498125
	minimum = 0.036 (at node 7)
	maximum = 0.066 (at node 12)
Injected packet length average = 1
Accepted packet length average = 1
Total in-flight flits = 18 (0 measured)
latency change    = 0.0335658
throughput change = 0.0890841
Class 0:
Packet latency average = 20.0894
	minimum = 7
	maximum = 46
Network latency average = 20.0894
	minimum = 7
	maximum = 46
Slowest packet = 32724
Flit latency average = 20.0894
	minimum = 7
	maximum = 46
Slowest flit = 32724
Fragmentation average = 0
	minimum = 0
	maximum = 0
Injected packet rate average = 0.046125
	minimum = 0.018 (at node 15)
	maximum = 0.064 (at node 0)
Accepted packet rate average = 0.046125
	minimum = 0.026 (at node 11)
	maximum = 0.066 (at node 2)
Injected flit rate average = 0.046125
	minimum = 0.018 (at node 15)
	maximum = 0.064 (at node 0)
Accepted flit rate average= 0.046125
	minimum = 0.026 (at node 11)
	maximum = 0.066 (at node 2)
Injected packet length average = 1
Accepted packet length average = 1
Total in-flight flits = 18 (0 measured)
latency change    = 0.0277132
throughput change = 0.0799458
Warmed up ...Time used is 1500 cycles
Class 0:
Packet latency average = 21.1439
	minimum = 7
	maximum = 62
Network latency average = 21.1439
	minimum = 7
	maximum = 62
Slowest packet = 33207
Flit latency average = 21.3913
	minimum = 7
	maximum = 62
Slowest flit = 33207
Fragmentation average = 0
	minimum = 0
	maximum = 0
Injected packet rate average = 0.05175
	minimum = 0.04 (at node 0)
	maximum = 0.074 (at node 12)
Accepted packet rate average = 0.05175
	minimum = 0.042 (at node 1)
	maximum = 0.064 (at node 10)
Injected flit rate average = 0.05175
	minimum = 0.04 (at node 0)
	maximum = 0.074 (at node 12)
Accepted flit rate average= 0.05175
	minimum = 0.042 (at node 1)
	maximum = 0.064 (at node 10)
Injected packet length average = 1
Accepted packet length average = 1
Total in-flight flits = 18 (18 measured)
latency change    = 0.0498728
throughput change = 0.108696
Class 0:
Packet latency average = 20.4822
	minimum = 7
	maximum = 62
Network latency average = 20.4822
	minimum = 7
	maximum = 62
Slowest packet = 33207
Flit latency average = 20.6194
	minimum = 7
	maximum = 62
Slowest flit = 33207
Fragmentation average = 0
	minimum = 0
	maximum = 0
Injected packet rate average = 0.051625
	minimum = 0.04 (at node 1)
	maximum = 0.076 (at node 13)
Accepted packet rate average = 0.0520625
	minimum = 0.041 (at node 8)
	maximum = 0.065 (at node 11)
Injected flit rate average = 0.051625
	minimum = 0.04 (at node 1)
	maximum = 0.076 (at node 13)
Accepted flit rate average= 0.0520625
	minimum = 0.041 (at node 8)
	maximum = 0.065 (at node 11)
Injected packet length average = 1
Accepted packet length average = 1
Total in-flight flits = 11 (11 measured)
latency change    = 0.0323076
throughput change = 0.0060024
Class 0:
Packet latency average = 20.6354
	minimum = 7
	maximum = 62
Network latency average = 20.6354
	minimum = 7
	maximum = 62
Slowest packet = 33207
Flit latency average = 20.7251
	minimum = 7
	maximum = 62
Slowest flit = 33207
Fragmentation average = 0
	minimum = 0
	maximum = 0
Injected packet rate average = 0.0516667
	minimum = 0.042 (at node 1)
	maximum = 0.0713333 (at node 13)
Accepted packet rate average = 0.0518333
	minimum = 0.04 (at node 8)
	maximum = 0.064 (at node 10)
Injected flit rate average = 0.0516667
	minimum = 0.042 (at node 1)
	maximum = 0.0713333 (at node 13)
Accepted flit rate average= 0.0518333
	minimum = 0.04 (at node 8)
	maximum = 0.064 (at node 10)
Injected packet length average = 1
Accepted packet length average = 1
Total in-flight flits = 14 (14 measured)
latency change    = 0.0074237
throughput change = 0.00442122
Class 0:
Packet latency average = 20.5164
	minimum = 7
	maximum = 62
Network latency average = 20.5164
	minimum = 7
	maximum = 62
Slowest packet = 33207
Flit latency average = 20.5845
	minimum = 7
	maximum = 62
Slowest flit = 33207
Fragmentation average = 0
	minimum = 0
	maximum = 0
Injected packet rate average = 0.052
	minimum = 0.043 (at node 1)
	maximum = 0.063 (at node 13)
Accepted packet rate average = 0.052125
	minimum = 0.041 (at node 8)
	maximum = 0.062 (at node 11)
Injected flit rate average = 0.052
	minimum = 0.043 (at node 1)
	maximum = 0.063 (at node 13)
Accepted flit rate average= 0.052125
	minimum = 0.041 (at node 8)
	maximum = 0.062 (at node 11)
Injected packet length average = 1
Accepted packet length average = 1
Total in-flight flits = 14 (14 measured)
latency change    = 0.005802
throughput change = 0.00559552
Draining all recorded packets ...
Draining remaining packets ...
Time taken is 3560 cycles
Class 0:
Packet latency average = 19.8747
	minimum = 7
	maximum = 46
Network latency average = 19.8747
	minimum = 7
	maximum = 46
Slowest packet = 34902
Flit latency average = 19.8747
	minimum = 7
	maximum = 46
Slowest flit = 34902
Fragmentation average = 0
	minimum = 0
	maximum = 0
Injected packet rate average = 0.049375
	minimum = 0.032 (at node 7)
	maximum = 0.064 (at node 4)
Accepted packet rate average = 0.046875
	minimum = 0.022 (at node 13)
	maximum = 0.064 (at node 2)
Injected flit rate average = 0.049375
	minimum = 0.032 (at node 7)
	maximum = 0.064 (at node 4)
Accepted flit rate average= 0.046875
	minimum = 0.022 (at node 13)
	maximum = 0.064 (at node 2)
Injected packet length average = 1
Accepted packet length average = 1
Total in-flight flits = 20 (0 measured)
latency change    = 1
throughput change = 1
Class 0:
Packet latency average = 20.2965
	minimum = 7
	maximum = 58
Network latency average = 20.2965
	minimum = 7
	maximum = 58
Slowest packet = 35457
Flit latency average = 20.2965
	minimum = 7
	maximum = 58
Slowest flit = 35457
Fragmentation average = 0
	minimum = 0
	maximum = 0
Injected packet rate average = 0.049625
	minimum = 0.036 (at node 7)
	maximum = 0.062 (at node 2)
Accepted packet rate average = 0.0480625
	minimum = 0.027 (at node 13)
	maximum = 0.057 (at node 6)
Injected flit rate average = 0.049625
	minimum = 0.036 (at node 7)
	maximum = 0.062 (at node 2)
Accepted flit rate average= 0.0480625
	minimum = 0.027 (at node 13)
	maximum = 0.057 (at node 6)
Injected packet length average = 1
Accepted packet length average = 1
Total in-flight flits = 25 (0 measured)
latency change    = 0.020783
throughput change = 0.0247074
Class 0:
Packet latency average = 20.3017
	minimum = 7
	maximum = 54
Network latency average = 20.3017
	minimum = 7
	maximum = 54
Slowest packet = 35596
Flit latency average = 20.3017
	minimum = 7
	maximum = 54
Slowest flit = 35596
Fragmentation average = 0
	minimum = 0
	maximum = 0
Injected packet rate average = 0.050875
	minimum = 0.034 (at node 4)
	maximum = 0.062 (at node 11)
Accepted packet rate average = 0.052625
	minimum = 0.04 (at node 2)
	maximum = 0.074 (at node 4)
Injected flit rate average = 0.050875
	minimum = 0.034 (at node 4)
	maximum = 0.062 (at node 11)
Accepted flit rate average= 0.052625
	minimum = 0.04 (at node 2)
	maximum = 0.074 (at node 4)
Injected packet length average = 1
Accepted packet length average = 1
Total in-flight flits = 11 (0 measured)
latency change    = 0.000254844
throughput change = 0.0866983
Warmed up ...Time used is 1500 cycles
Class 0:
Packet latency average = 19.8
	minimum = 7
	maximum = 50
Network latency average = 19.8
	minimum = 7
	maximum = 50
Slowest packet = 35973
Flit latency average = 19.8368
	minimum = 7
	maximum = 50
Slowest flit = 35973
Fragmentation average = 0
	minimum = 0
	maximum = 0
Injected packet rate average = 0.0485
	minimum = 0.026 (at node 6)
	maximum = 0.064 (at node 4)
Accepted packet rate average = 0.04825
	minimum = 0.034 (at node 1)
	maximum = 0.06 (at node 3)
Injected flit rate average = 0.0485
	minimum = 0.026 (at node 6)
	maximum = 0.064 (at node 4)
Accepted flit rate average= 0.04825
	minimum = 0.034 (at node 1)
	maximum = 0.06 (at node 3)
Injected packet length average = 1
Accepted packet length average = 1
Total in-flight flits = 13 (13 measured)
latency change    = 0.0253365
throughput change = 0.0906736
Class 0:
Packet latency average = 20.0987
	minimum = 7
	maximum = 50
Network latency average = 20.0987
	minimum = 7
	maximum = 50
Slowest packet = 35973
Flit latency average = 20.1122
	minimum = 7
	maximum = 50
Slowest flit = 35973
Fragmentation average = 0
	minimum = 0
	maximum = 0
Injected packet rate average = 0.051
	minimum = 0.035 (at node 6)
	maximum = 0.063 (at node 15)
Accepted packet rate average = 0.0506875
	minimum = 0.041 (at node 1)
	maximum = 0.063 (at node 3)
Injected flit rate average = 0.051
	minimum = 0.035 (at node 6)
	maximum = 0.063 (at node 15)
Accepted flit rate average= 0.0506875
	minimum = 0.041 (at node 1)
	maximum = 0.063 (at node 3)
Injected packet length average = 1
Accepted packet length average = 1
Total in-flight flits = 16 (16 measured)
latency change    = 0.0148641
throughput change = 0.0480888
Class 0:
Packet latency average = 20.1753
	minimum = 7
	maximum = 54
Network latency average = 20.1753
	minimum = 7
	maximum = 54
Slowest packet = 37109
Flit latency average = 20.1833
	minimum = 7
	maximum = 54
Slowest flit = 37109
Fragmentation average = 0
	minimum = 0
	maximum = 0
Injected packet rate average = 0.0522917
	minimum = 0.0406667 (at node 6)
	maximum = 0.0626667 (at node 4)
Accepted packet rate average = 0.0520417
	minimum = 0.0413333 (at node 1)
	maximum = 0.0613333 (at node 3)
Injected flit rate average = 0.0522917
	minimum = 0.0406667 (at node 6)
	maximum = 0.0626667 (at node 4)
Accepted flit rate average= 0.0520417
	minimum = 0.0413333 (at node 1)
	maximum = 0.0613333 (at node 3)
Injected packet length average = 1
Accepted packet length average = 1
Total in-flight flits = 17 (17 measured)
latency change    = 0.00379339
throughput change = 0.0260208
Class 0:
Packet latency average = 20.1228
	minimum = 7
[...]
Fragmentation average = 0
	minimum = 0
	maximum = 0
Injected packet rate average = 0.0500937
	minimum = 0.0425 (at node 4)
	maximum = 0.0645 (at node 0)
Accepted packet rate average = 0.05025
	minimum = 0.0355 (at node 2)
	maximum = 0.063 (at node 14)
Injected flit rate average = 0.0500937
	minimum = 0.0425 (at node 4)
	maximum = 0.0645 (at node 0)
Accepted flit rate average= 0.05025
	minimum = 0.0355 (at node 2)
	maximum = 0.063 (at node 14)
Injected packet length average = 1
Accepted packet length average = 1
Total in-flight flits = 15 (15 measured)
latency change    = 0.00735499
throughput change = 0.0124378
Draining all recorded packets ...
Draining remaining packets ...
Time taken is 3557 cycles
Class 0:
Packet latency average = 20.3
	minimum = 7
	maximum = 45
Network latency average = 20.3
	minimum = 7
	maximum = 45
Slowest packet = 129774
Flit latency average = 20.3
	minimum = 7
	maximum = 45
Slowest flit = 129774
Fragmentation average = 0
	minimum = 0
	maximum = 0
Injected packet rate average = 0.051375
	minimum = 0.034 (at node 15)
	maximum = 0.074 (at node 1)
Accepted packet rate average = 0.04875
	minimum = 0.036 (at node 7)
	maximum = 0.066 (at node 8)
Injected flit rate average = 0.051375
	minimum = 0.034 (at node 15)
	maximum = 0.074 (at node 1)
Accepted flit rate average= 0.04875
	minimum = 0.036 (at node 7)
	maximum = 0.066 (at node 8)
Injected packet length average = 1
Accepted packet length average = 1
Total in-flight flits = 21 (0 measured)
latency change    = 1
throughput change = 1
Class 0:
Packet latency average = 20.4969
	minimum = 7
	maximum = 53
Network latency average = 20.4969
	minimum = 7
	maximum = 53
Slowest packet = 129968
Flit latency average = 20.4969
	minimum = 7
	maximum = 53
Slowest flit = 129968
Fragmentation average = 0
	minimum = 0
	maximum = 0
Injected packet rate average = 0.0508125
	minimum = 0.037 (at node 13)
	maximum = 0.065 (at node 11)
Accepted packet rate average = 0.0499375
	minimum = 0.038 (at node 7)
	maximum = 0.063 (at node 8)
Injected flit rate average = 0.0508125
	minimum = 0.037 (at node 13)
	maximum = 0.065 (at node 11)
Accepted flit rate average= 0.0499375
	minimum = 0.038 (at node 7)
	maximum = 0.063 (at node 8)
Injected packet length average = 1
Accepted packet length average = 1
Total in-flight flits = 14 (0 measured)
latency change    = 0.00960493
throughput change = 0.0237797
Class 0:
Packet latency average = 20.1357
	minimum = 7
	maximum = 56
Network latency average = 20.1357
	minimum = 7
	maximum = 56
Slowest packet = 130365
Flit latency average = 20.1357
	minimum = 7
	maximum = 56
Slowest flit = 130365
Fragmentation average = 0
	minimum = 0
	maximum = 0
Injected packet rate average = 0.0565
	minimum = 0.046 (at node 0)
	maximum = 0.072 (at node 10)
Accepted packet rate average = 0.05525
	minimum = 0.044 (at node 14)
	maximum = 0.078 (at node 1)
Injected flit rate average = 0.0565
	minimum = 0.046 (at node 0)
	maximum = 0.072 (at node 10)
Accepted flit rate average= 0.05525
	minimum = 0.044 (at node 14)
	maximum = 0.078 (at node 1)
Injected packet length average = 1
Accepted packet length average = 1
Total in-flight flits = 24 (0 measured)
latency change    = 0.0179345
throughput change = 0.0961538
Warmed up ...Time used is 1500 cycles
Class 0:
Packet latency average = 19.6116
	minimum = 7
	maximum = 45
Network latency average = 19.6116
	minimum = 7
	maximum = 45
Slowest packet = 130819
Flit latency average = 19.7313
	minimum = 7
	maximum = 45
Slowest flit = 130819
Fragmentation average = 0
	minimum = 0
	maximum = 0
Injected packet rate average = 0.04725
	minimum = 0.032 (at node 12)
	maximum = 0.066 (at node 2)
Accepted packet rate average = 0.048375
	minimum = 0.03 (at node 3)
	maximum = 0.066 (at node 0)
Injected flit rate average = 0.04725
	minimum = 0.032 (at node 12)
	maximum = 0.066 (at node 2)
Accepted flit rate average= 0.048375
	minimum = 0.03 (at node 3)
	maximum = 0.066 (at node 0)
Injected packet length average = 1
Accepted packet length average = 1
Total in-flight flits = 15 (15 measured)
latency change    = 0.0267279
throughput change = 0.142119
Class 0:
Packet latency average = 20.0199
	minimum = 7
	maximum = 46
Network latency average = 20.0199
	minimum = 7
	maximum = 46
Slowest packet = 131130
Flit latency average = 20.0668
	minimum = 7
	maximum = 46
Slowest flit = 131130
Fragmentation average = 0
	minimum = 0
	maximum = 0
Injected packet rate average = 0.0481875
	minimum = 0.036 (at node 12)
	maximum = 0.057 (at node 2)
Accepted packet rate average = 0.048625
	minimum = 0.038 (at node 4)
	maximum = 0.059 (at node 15)
Injected flit rate average = 0.0481875
	minimum = 0.036 (at node 12)
	maximum = 0.057 (at node 2)
Accepted flit rate average= 0.048625
	minimum = 0.038 (at node 4)
	maximum = 0.059 (at node 15)
Injected packet length average = 1
Accepted packet length average = 1
Total in-flight flits = 17 (17 measured)
latency change    = 0.0203959
throughput change = 0.00514139
Class 0:
Packet latency average = 20.1149
	minimum = 7
	maximum = 46
Network latency average = 20.1149
	minimum = 7
	maximum = 46
Slowest packet = 131130
Flit latency average = 20.1435
	minimum = 7
	maximum = 46
Slowest flit = 131130
Fragmentation average = 0
	minimum = 0
	maximum = 0
Injected packet rate average = 0.05
	minimum = 0.0386667 (at node 12)
	maximum = 0.0593333 (at node 11)
Accepted packet rate average = 0.0499583
	minimum = 0.044 (at node 12)
	maximum = 0.0553333 (at node 5)
Injected flit rate average = 0.05
	minimum = 0.0386667 (at node 12)
	maximum = 0.0593333 (at node 11)
Accepted flit rate average= 0.0499583
	minimum = 0.044 (at node 12)
	maximum = 0.0553333 (at node 5)
Injected packet length average = 1
Accepted packet length average = 1
Total in-flight flits = 25 (25 measured)
latency change    = 0.00472285
throughput change = 0.0266889
Class 0:
Packet latency average = 20.1381
	minimum = 7
	maximum = 46
Network latency average = 20.1381
	minimum = 7
	maximum = 46
Slowest packet = 131130
Flit latency average = 20.159
	minimum = 7
	maximum = 46
Slowest flit = 131130
Fragmentation average = 0
	minimum = 0
	maximum = 0
Injected packet rate average = 0.0501562
	minimum = 0.0435 (at node 12)
	maximum = 0.057 (at node 11)
Accepted packet rate average = 0.0503125
	minimum = 0.0455 (at node 12)
	maximum = 0.0565 (at node 7)
Injected flit rate average = 0.0501562
	minimum = 0.0435 (at node 12)
	maximum = 0.057 (at node 11)
Accepted flit rate average= 0.0503125
	minimum = 0.0455 (at node 12)
	maximum = 0.0565 (at node 7)
Injected packet length average = 1
Accepted packet length average = 1
Total in-flight flits = 19 (19 measured)
latency change    = 0.00115153
throughput change = 0.00703934
Draining all recorded packets ...
Draining remaining packets ...
Time taken is 3554 cycles
Class 0:
Packet latency average = 19.7294
	minimum = 7
	maximum = 44
Network latency average = 19.7294
	minimum = 7
	maximum = 44
Slowest packet = 132391
Flit latency average = 19.7294
	minimum = 7
	maximum = 44
Slowest flit = 132391
Fragmentation average = 0
	minimum = 0
	maximum = 0
Injected packet rate average = 0.048875
	minimum = 0.032 (at node 12)
	maximum = 0.072 (at node 9)
Accepted packet rate average = 0.047125
	minimum = 0.036 (at node 1)
	maximum = 0.06 (at node 3)
Injected flit rate average = 0.048875
	minimum = 0.032 (at node 12)
	maximum = 0.072 (at node 9)
Accepted flit rate average= 0.047125
	minimum = 0.036 (at node 1)
	maximum = 0.06 (at node 3)
Injected packet length average = 1
Accepted packet length average = 1
Total in-flight flits = 14 (0 measured)
latency change    = 1
throughput change = 1
Class 0:
Packet latency average = 20.5526
	minimum = 7
	maximum = 51
Network latency average = 20.5526
	minimum = 7
	maximum = 51
Slowest packet = 132725
Flit latency average = 20.5526
	minimum = 7
	maximum = 51
Slowest flit = 132725
Fragmentation average = 0
	minimum = 0
	maximum = 0
Injected packet rate average = 0.0508125
	minimum = 0.043 (at node 1)
	maximum = 0.064 (at node 7)
Accepted packet rate average = 0.049875
	minimum = 0.037 (at node 15)
	maximum = 0.058 (at node 8)
Injected flit rate average = 0.0508125
	minimum = 0.043 (at node 1)
	maximum = 0.064 (at node 7)
Accepted flit rate average= 0.049875
	minimum = 0.037 (at node 15)
	maximum = 0.058 (at node 8)
Injected packet length average = 1
Accepted packet length average = 1
Total in-flight flits = 15 (0 measured)
latency change    = 0.0400527
throughput change = 0.0551378
Class 0:
Packet latency average = 19.7534
	minimum = 7
	maximum = 42
Network latency average = 19.7534
	minimum = 7
	maximum = 42
Slowest packet = 133107
Flit latency average = 19.7534
	minimum = 7
	maximum = 42
Slowest flit = 133107
Fragmentation average = 0
	minimum = 0
	maximum = 0
Injected packet rate average = 0.046375
	minimum = 0.032 (at node 0)
	maximum = 0.06 (at node 2)
Accepted packet rate average = 0.046125
	minimum = 0.034 (at node 6)
	maximum = 0.062 (at node 5)
Injected flit rate average = 0.046375
	minimum = 0.032 (at node 0)
	maximum = 0.06 (at node 2)
Accepted flit rate average= 0.046125
	minimum = 0.034 (at node 6)
	maximum = 0.062 (at node 5)
Injected packet length average = 1
Accepted packet length average = 1
Total in-flight flits = 17 (0 measured)
latency change    = 0.0404611
throughput change = 0.0813008
Warmed up ...Time used is 1500 cycles
Class 0:
Packet latency average = 19.8466
	minimum = 7
	maximum = 42
Network latency average = 19.8466
	minimum = 7
	maximum = 42
Slowest packet = 133774
Flit latency average = 20.0835
	minimum = 7
	maximum = 42
Slowest flit = 133481
Fragmentation average = 0
	minimum = 0
	maximum = 0
Injected packet rate average = 0.04925
	minimum = 0.032 (at node 11)
	maximum = 0.058 (at node 4)
Accepted packet rate average = 0.049375
	minimum = 0.024 (at node 8)
	maximum = 0.074 (at node 0)
Injected flit rate average = 0.04925
	minimum = 0.032 (at node 11)
	maximum = 0.058 (at node 4)
Accepted flit rate average= 0.049375
	minimum = 0.024 (at node 8)
	maximum = 0.074 (at node 0)
Injected packet length average = 1
Accepted packet length average = 1
Total in-flight flits = 16 (16 measured)
latency change    = 0.00469468
throughput change = 0.0658228
Class 0:
Packet latency average = 19.814
	minimum = 7
	maximum = 48
Network latency average = 19.814
	minimum = 7
	maximum = 48
Slowest packet = 134245
Flit latency average = 19.9314
	minimum = 7
	maximum = 48
Slowest flit = 134245
Fragmentation average = 0
	minimum = 0
	maximum = 0
Injected packet rate average = 0.0503125
	minimum = 0.04 (at node 6)
	maximum = 0.058 (at node 14)
Accepted packet rate average = 0.050125
	minimum = 0.04 (at node 8)
	maximum = 0.067 (at node 0)
Injected flit rate average = 0.0503125
	minimum = 0.04 (at node 6)
	maximum = 0.058 (at node 14)
Accepted flit rate average= 0.050125
	minimum = 0.04 (at node 8)
	maximum = 0.067 (at node 0)
Injected packet length average = 1
Accepted packet length average = 1
Total in-flight flits = 20 (20 measured)
latency change    = 0.00164268
throughput change = 0.0149626
Class 0:
Packet latency average = 20.0249
	minimum = 7
	maximum = 48
Network latency average = 20.0249
	minimum = 7
	maximum = 48
Slowest packet = 134245
Flit latency average = 20.0991
	minimum = 7
	maximum = 48
Slowest flit = 134245
Fragmentation average = 0
	minimum = 0
	maximum = 0
Injected packet rate average = 0.0510417
	minimum = 0.0433333 (at node 9)
	maximum = 0.0626667 (at node 4)
Accepted packet rate average = 0.050875
	minimum = 0.0393333 (at node 11)
	maximum = 0.0693333 (at node 10)
Injected flit rate average = 0.0510417
	minimum = 0.0433333 (at node 9)
	maximum = 0.0626667 (at node 4)
Accepted flit rate average= 0.050875
	minimum = 0.0393333 (at node 11)
	maximum = 0.0693333 (at node 10)
Injected packet length average = 1
Accepted packet length average = 1
Total in-flight flits = 21 (21 measured)
latency change    = 0.0105321
throughput change = 0.014742
Class 0:
Packet latency average = 19.9981
	minimum = 7
	maximum = 48
Network latency average = 19.9981
	minimum = 7
	maximum = 48
Slowest packet = 134245
Flit latency average = 20.054
	minimum = 7
	maximum = 48
Slowest flit = 134245
Fragmentation average = 0
	minimum = 0
	maximum = 0
Injected packet rate average = 0.0508438
	minimum = 0.046 (at node 13)
	maximum = 0.059 (at node 4)
Accepted packet rate average = 0.0509063
	minimum = 0.0405 (at node 11)
	maximum = 0.067 (at node 10)
Injected flit rate average = 0.0508438
	minimum = 0.046 (at node 13)
	maximum = 0.059 (at node 4)
Accepted flit rate average= 0.0509063
	minimum = 0.0405 (at node 11)
	maximum = 0.067 (at node 10)
Injected packet length average = 1
Accepted packet length average = 1
Total in-flight flits = 15 (15 measured)
latency change    = 0.00133902
throughput change = 0.000613874
Draining all recorded packets ...
Draining remaining packets ...
Time taken is 3561 cycles
Class 0:
Packet latency average = 20.942
	minimum = 7
	maximum = 50
Network latency average = 20.942
	minimum = 7
	maximum = 50
Slowest packet = 135438
Flit latency average = 20.942
	minimum = 7
	maximum = 50
Slowest flit = 135438
Fragmentation average = 0
	minimum = 0
	maximum = 0
Injected packet rate average = 0.050125
	minimum = 0.032 (at node 10)
	maximum = 0.064 (at node 0)
Accepted packet rate average = 0.047375
	minimum = 0.026 (at node 10)
	maximum = 0.064 (at node 7)
Injected flit rate average = 0.050125
	minimum = 0.032 (at node 10)
	maximum = 0.064 (at node 0)
Accepted flit rate average= 0.047375
	minimum = 0.026 (at node 10)
	maximum = 0.064 (at node 7)
Injected packet length average = 1
Accepted packet length average = 1
Total in-flight flits = 22 (0 measured)
latency change    = 1
throughput change = 1
Class 0:
Packet latency average = 20.5698
	minimum = 7
	maximum = 52
Network latency average = 20.5698
	minimum = 7
	maximum = 52
Slowest packet = 135806
Flit latency average = 20.5698
	minimum = 7
	maximum = 52
Slowest flit = 135806
Fragmentation average = 0
	minimum = 0
	maximum = 0
Injected packet rate average = 0.05125
	minimum = 0.037 (at node 6)
	maximum = 0.063 (at node 8)
Accepted packet rate average = 0.050125
	minimum = 0.034 (at node 15)
	maximum = 0.061 (at node 7)
Injected flit rate average = 0.05125
	minimum = 0.037 (at node 6)
	maximum = 0.063 (at node 8)
Accepted flit rate average= 0.050125
	minimum = 0.034 (at node 15)
	maximum = 0.061 (at node 7)
Injected packet length average = 1
Accepted packet length average = 1
Total in-flight flits = 18 (0 measured)
latency change    = 0.0180909
throughput change = 0.0548628
Class 0:
Packet latency average = 21.2471
	minimum = 7
	maximum = 51
Network latency average = 21.2471
	minimum = 7
	maximum = 51
Slowest packet = 136047
Flit latency average = 21.2471
	minimum = 7
	maximum = 51
Slowest flit = 136047
Fragmentation average = 0
	minimum = 0
	maximum = 0
Injected packet rate average = 0.05275
	minimum = 0.038 (at node 4)
	maximum = 0.074 (at node 3)
Accepted packet rate average = 0.053625
	minimum = 0.036 (at node 6)
	maximum = 0.072 (at node 7)
Injected flit rate average = 0.05275
	minimum = 0.038 (at node 4)
	maximum = 0.074 (at node 3)
Accepted flit rate average= 0.053625
	minimum = 0.036 (at node 6)
	maximum = 0.072 (at node 7)
Injected packet length average = 1
Accepted packet length average = 1
Total in-flight flits = 11 (0 measured)
latency change    = 0.0318755
throughput change = 0.0652681
Warmed up ...Time used is 1500 cycles
Class 0:
Packet latency average = 20.3466
	minimum = 7
	maximum = 53
Network latency average = 20.3466
	minimum = 7
	maximum = 53
Slowest packet = 136658
Flit latency average = 20.4319
	minimum = 7
	maximum = 53
Slowest flit = 136658
Fragmentation average = 0
	minimum = 0
	maximum = 0
Injected packet rate average = 0.049125
	minimum = 0.036 (at node 1)
	maximum = 0.07 (at node 13)
Accepted packet rate average = 0.048625
	minimum = 0.03 (at node 0)
	maximum = 0.066 (at node 9)
Injected flit rate average = 0.049125
	minimum = 0.036 (at node 1)
	maximum = 0.07 (at node 13)
Accepted flit rate average= 0.048625
	minimum = 0.03 (at node 0)
	maximum = 0.066 (at node 9)
Injected packet length average = 1
Accepted packet length average = 1
Total in-flight flits = 15 (15 measured)
latency change    = 0.0442593
throughput change = 0.102828
Class 0:
Packet latency average = 20.5521
	minimum = 7
	maximum = 62
Network latency average = 20.5521
	minimum = 7
	maximum = 62
Slowest packet = 137016
Flit latency average = 20.5929
	minimum = 7
	maximum = 62
Slowest flit = 137016
Fragmentation average = 0
	minimum = 0
	maximum = 0
Injected packet rate average = 0.0481875
	minimum = 0.034 (at node 7)
	maximum = 0.06 (at node 13)
Accepted packet rate average = 0.0474375
	minimum = 0.035 (at node 0)
	maximum = 0.059 (at node 11)
Injected flit rate average = 0.0481875
	minimum = 0.034 (at node 7)
	maximum = 0.06 (at node 13)
Accepted flit rate average= 0.0474375
	minimum = 0.035 (at node 0)
	maximum = 0.059 (at node 11)
Injected packet length average = 1
Accepted packet length average = 1
Total in-flight flits = 23 (23 measured)
latency change    = 0.0100028
throughput change = 0.0250329
Class 0:
Packet latency average = 20.5149
	minimum = 7
	maximum = 62
Network latency average = 20.5149
	minimum = 7
	maximum = 62
Slowest packet = 137016
Flit latency average = 20.542
	minimum = 7
	maximum = 62
Slowest flit = 137016
Fragmentation average = 0
	minimum = 0
	maximum = 0
Injected packet rate average = 0.048125
	minimum = 0.0353333 (at node 7)
	maximum = 0.06 (at node 11)
Accepted packet rate average = 0.048125
	minimum = 0.0373333 (at node 12)
	maximum = 0.06 (at node 11)
Injected flit rate average = 0.048125
	minimum = 0.0353333 (at node 7)
	maximum = 0.06 (at node 11)
Accepted flit rate average= 0.048125
	minimum = 0.0373333 (at node 12)
	maximum = 0.06 (at node 11)
Injected packet length average = 1
Accepted packet length average = 1
Total in-flight flits = 11 (11 measured)
latency change    = 0.00181717
throughput change = 0.0142857
Class 0:
Packet latency average = 20.6714
	minimum = 7
	maximum = 62
Network latency average = 20.6714
	minimum = 7
	maximum = 62
Slowest packet = 137016
Flit latency average = 20.6906
	minimum = 7
	maximum = 62
Slowest flit = 137016
Fragmentation average = 0
	minimum = 0
	maximum = 0
Injected packet rate average = 0.0487187
	minimum = 0.041 (at node 7)
	maximum = 0.055 (at node 11)
Accepted packet rate average = 0.0482812
	minimum = 0.0395 (at node 4)
	maximum = 0.0585 (at node 14)
Injected flit rate average = 0.0487187
	minimum = 0.041 (at node 7)
	maximum = 0.055 (at node 11)
Accepted flit rate average= 0.0482812
	minimum = 0.0395 (at node 4)
	maximum = 0.0585 (at node 14)
Injected packet length average = 1
Accepted packet length average = 1
Total in-flight flits = 25 (25 measured)
latency change    = 0.00757504
throughput change = 0.00323625
Draining all recorded packets ...
Draining remaining packets ...
Time taken is 3568 cycles
====== Overall Traffic Statistics ======
====== Traffic class 0 ======
Packet latency average = 20.4819 (50 samples)
	minimum = 7 (50 samples)
	maximum = 57.98 (50 samples)
Network latency average = 20.4818 (50 samples)
	minimum = 7 (50 samples)
	maximum = 57.94 (50 samples)
Flit latency average = 20.5112 (50 samples)
	minimum = 7 (50 samples)
	maximum = 58.08 (50 samples)
Fragmentation average = 0 (50 samples)
	minimum = 0 (50 samples)
	maximum = 0 (50 samples)
Injected packet rate average = 0.0500593 (50 samples)
	minimum = 0.0414847 (50 samples)
	maximum = 0.0592047 (50 samples)
Accepted packet rate average = 0.0500666 (50 samples)
	minimum = 0.0411033 (50 samples)
	maximum = 0.059848 (50 samples)
Injected flit rate average = 0.0500593 (50 samples)
	minimum = 0.0414847 (50 samples)
	maximum = 0.0592047 (50 samples)
Accepted flit rate average = 0.0500666 (50 samples)
	minimum = 0.0411033 (50 samples)
	maximum = 0.059848 (50 samples)
Injected packet size average = 1 (50 samples)
Accepted packet size average = 1 (50 samples)
Hops average = 3.52657 (50 samples)
Total run time 2.04562
