BEGIN Configuration File: /tmp/tmp1e0i2i20.cfg
topology = mesh;
k = 4;
n = 2;
routing_function = planar_adapt;
num_vcs = 4;
vc_buf_size = 4;
wait_for_tail_credit = 1;
vc_allocator = islip;
sw_allocator = islip;
alloc_iters = 1;
credit_delay = 2;
routing_delay = 1;
vc_alloc_delay = 1;
sw_alloc_delay = 1;
input_speedup = 2;
output_speedup = 1;
internal_speedup = 1.0;
traffic = uniform;
packet_size = 1;
sim_type = latency;
injection_rate = 0.05;
warmup_periods = 3;
sample_period = 500;
sim_count = 50;
seed = 0;
link_failures = 0;
fail_seed = 101;

END Configuration File: /tmp/tmp1e0i2i20.cfg
Class 0:
Packet latency average = 19.9351
	minimum = 7
	maximum = 43
Network latency average = 19.9351
	minimum = 7
	maximum = 43
Slowest packet = 65
Flit latency average = 19.9351
	minimum = 7
	maximum = 43
Slowest flit = 65
Fragmentation average = 0
	minimum = 0
	maximum = 0
Injected packet rate average = 0.049625
	minimum = 0.032 (at node 8)
	maximum = 0.064 (at node 13)
Accepted packet rate average = 0.048125
	minimum = 0.024 (at node 11)
	maximum = 0.064 (at node 2)
Injected flit rate average = 0.049625
	minimum = 0.032 (at node 8)
	maximum = 0.064 (at node 13)
Accepted flit rate average= 0.048125
	minimum = 0.024 (at node 11)
	maximum = 0.064 (at node 2)
Injected packet length average = 1
Accepted packet length average = 1
Total in-flight flits = 12 (0 measured)
latency change    = 1
throughput change = 1
Class 0:
Packet latency average = 19.8779
	minimum = 7
	maximum = 43
Network latency average = 19.8779
	minimum = 7
	maximum = 43
Slowest packet = 65
Flit latency average = 19.8779
	minimum = 7
	maximum = 43
Slowest flit = 65
Fragmentation average = 0
	minimum = 0
	maximum = 0
Injected packet rate average = 0.048875
	minimum = 0.041 (at node 5)
	maximum = 0.054 (at node 1)
Accepted packet rate average = 0.048125
	minimum = 0.038 (at node 11)
	maximum = 0.054 (at node 0)
Injected flit rate average = 0.048875
	minimum = 0.041 (at node 5)
	maximum = 0.054 (at node 1)
Accepted flit rate average= 0.048125
	minimum = 0.038 (at node 11)
	maximum = 0.054 (at node 0)
Injected packet length average = 1
Accepted packet length average = 1
Total in-flight flits = 12 (0 measured)
latency change    = 0.00287469
throughput change = 0
Class 0:
Packet latency average = 20.5436
	minimum = 7
	maximum = 44
Network latency average = 20.5436
	minimum = 7
	maximum = 44
Slowest packet = 1145
Flit latency average = 20.5436
	minimum = 7
	maximum = 44
Slowest flit = 1145
Fragmentation average = 0
	minimum = 0
	maximum = 0
Injected packet rate average = 0.05025
	minimum = 0.032 (at node 11)
	maximum = 0.064 (at node 12)
Accepted packet rate average = 0.04875
	minimum = 0.032 (at node 0)
	maximum = 0.064 (at node 7)
Injected flit rate average = 0.05025
	minimum = 0.032 (at node 11)
	maximum = 0.064 (at node 12)
Accepted flit rate average= 0.04875
	minimum = 0.032 (at node 0)
	maximum = 0.064 (at node 7)
Injected packet length average = 1
Accepted packet length average = 1
Total in-flight flits = 24 (0 measured)
latency change    = 0.0324027
throughput change = 0.0128205
Warmed up ...Time used is 1500 cycles
Class 0:
Packet latency average = 19.7387
	minimum = 7
	maximum = 48
Network latency average = 19.7387
	minimum = 7
	maximum = 48
Slowest packet = 1304
Flit latency average = 19.9098
	minimum = 7
	maximum = 48
Slowest flit = 1304
Fragmentation average = 0
	minimum = 0
	maximum = 0
Injected packet rate average = 0.0485
	minimum = 0.036 (at node 9)
	maximum = 0.066 (at node 13)
Accepted packet rate average = 0.049875
	minimum = 0.03 (at node 2)
	maximum = 0.07 (at node 11)
Injected flit rate average = 0.0485
	minimum = 0.036 (at node 9)
	maximum = 0.066 (at node 13)
Accepted flit rate average= 0.049875
	minimum = 0.03 (at node 2)
	maximum = 0.07 (at node 11)
Injected packet length average = 1
Accepted packet length average = 1
Total in-flight flits = 13 (13 measured)
latency change    = 0.040779
throughput change = 0.0225564
Class 0:
Packet latency average = 19.6897
	minimum = 7
	maximum = 48
Network latency average = 19.6897
	minimum = 7
	maximum = 48
Slowest packet = 1304
Flit latency average = 19.7744
	minimum = 7
	maximum = 48
Slowest flit = 1304
Fragmentation average = 0
	minimum = 0
	maximum = 0
Injected packet rate average = 0.0505625
	minimum = 0.04 (at node 9)
	maximum = 0.064 (at node 13)
Accepted packet rate average = 0.05125
	minimum = 0.036 (at node 2)
	maximum = 0.064 (at node 8)
Injected flit rate average = 0.0505625
	minimum = 0.04 (at node 9)
	maximum = 0.064 (at node 13)
Accepted flit rate average= 0.05125
	minimum = 0.036 (at node 2)
	maximum = 0.064 (at node 8)
Injected packet length average = 1
Accepted packet length average = 1
Total in-flight flits = 13 (13 measured)
latency change    = 0.00248699
throughput change = 0.0268293
Class 0:
Packet latency average = 19.8678
	minimum = 7
	maximum = 48
Network latency average = 19.8678
	minimum = 7
	maximum = 48
Slowest packet = 1304
Flit latency average = 19.9212
	minimum = 7
	maximum = 48
Slowest flit = 1304
Fragmentation average = 0
	minimum = 0
	maximum = 0
Injected packet rate average = 0.0507083
	minimum = 0.044 (at node 9)
	maximum = 0.0566667 (at node 11)
Accepted packet rate average = 0.0507917
	minimum = 0.04 (at node 4)
	maximum = 0.0593333 (at node 11)
Injected flit rate average = 0.0507083
	minimum = 0.044 (at node 9)
	maximum = 0.0566667 (at node 11)
Accepted flit rate average= 0.0507917
	minimum = 0.04 (at node 4)
	maximum = 0.0593333 (at node 11)
Injected packet length average = 1
Accepted packet length average = 1
Total in-flight flits = 22 (22 measured)
latency change    = 0.00896345
throughput change = 0.00902379
Draining all recorded packets ...
Draining remaining packets ...
Time taken is 3052 cycles
Class 0:
Packet latency average = 20.4107
	minimum = 7
	maximum = 42
Network latency average = 20.4107
	minimum = 7
	maximum = 42
Slowest packet = 2481
Flit latency average = 20.4107
	minimum = 7
	maximum = 42
Slowest flit = 2481
Fragmentation average = 0
	minimum = 0
	maximum = 0
Injected packet rate average = 0.050125
	minimum = 0.042 (at node 0)
	maximum = 0.068 (at node 15)
Accepted packet rate average = 0.046875
	minimum = 0.024 (at node 15)
	maximum = 0.062 (at node 13)
Injected flit rate average = 0.050125
	minimum = 0.042 (at node 0)
	maximum = 0.068 (at node 15)
Accepted flit rate average= 0.046875
	minimum = 0.024 (at node 15)
	maximum = 0.062 (at node 13)
Injected packet length average = 1
Accepted packet length average = 1
Total in-flight flits = 26 (0 measured)
latency change    = 1
throughput change = 1
Class 0:
Packet latency average = 20.2112
	minimum = 7
	maximum = 42
Network latency average = 20.2112
	minimum = 7
	maximum = 42
Slowest packet = 2481
Flit latency average = 20.2112
	minimum = 7
	maximum = 42
Slowest flit = 2481
Fragmentation average = 0
	minimum = 0
	maximum = 0
Injected packet rate average = 0.048
	minimum = 0.035 (at node 0)
	maximum = 0.059 (at node 15)
Accepted packet rate average = 0.04675
	minimum = 0.034 (at node 15)
	maximum = 0.059 (at node 2)
Injected flit rate average = 0.048
	minimum = 0.035 (at node 0)
	maximum = 0.059 (at node 15)
Accepted flit rate average= 0.04675
	minimum = 0.034 (at node 15)
	maximum = 0.059 (at node 2)
Injected packet length average = 1
Accepted packet length average = 1
Total in-flight flits = 20 (0 measured)
latency change    = 0.00986762
throughput change = 0.0026738
Class 0:
Packet latency average = 19.8697
	minimum = 7
	maximum = 40
Network latency average = 19.8697
	minimum = 7
	maximum = 40
Slowest packet = 3505
Flit latency average = 19.8697
	minimum = 7
	maximum = 40
Slowest flit = 3505
Fragmentation average = 0
	minimum = 0
	maximum = 0
Injected packet rate average = 0.0465
	minimum = 0.036 (at node 6)
	maximum = 0.06 (at node 10)
Accepted packet rate average = 0.047
	minimum = 0.034 (at node 7)
	maximum = 0.062 (at node 6)
Injected flit rate average = 0.0465
	minimum = 0.036 (at node 6)
	maximum = 0.06 (at node 10)
Accepted flit rate average= 0.047
	minimum = 0.034 (at node 7)
	maximum = 0.062 (at node 6)
Injected packet length average = 1
Accepted packet length average = 1
Total in-flight flits = 16 (0 measured)
latency change    = 0.0171895
throughput change = 0.00531915
Warmed up ...Time used is 1500 cycles
Class 0:
Packet latency average = 19.8049
	minimum = 7
	maximum = 37
Network latency average = 19.8049
	minimum = 7
	maximum = 37
Slowest packet = 3586
Flit latency average = 19.9143
	minimum = 7
	maximum = 37
Slowest flit = 3586
Fragmentation average = 0
	minimum = 0
	maximum = 0
Injected packet rate average = 0.048625
	minimum = 0.034 (at node 0)
	maximum = 0.064 (at node 9)
Accepted packet rate average = 0.048125
	minimum = 0.038 (at node 9)
	maximum = 0.06 (at node 3)
Injected flit rate average = 0.048625
	minimum = 0.034 (at node 0)
	maximum = 0.064 (at node 9)
Accepted flit rate average= 0.048125
	minimum = 0.038 (at node 9)
	maximum = 0.06 (at node 3)
Injected packet length average = 1
Accepted packet length average = 1
Total in-flight flits = 20 (20 measured)
latency change    = 0.00327206
throughput change = 0.0233766
Class 0:
Packet latency average = 19.9618
	minimum = 7
	maximum = 42
Network latency average = 19.9618
	minimum = 7
	maximum = 42
Slowest packet = 4223
Flit latency average = 20.0129
	minimum = 7
	maximum = 42
Slowest flit = 4223
Fragmentation average = 0
	minimum = 0
	maximum = 0
Injected packet rate average = 0.048875
	minimum = 0.04 (at node 8)
	maximum = 0.058 (at node 15)
Accepted packet rate average = 0.0484375
	minimum = 0.04 (at node 4)
	maximum = 0.059 (at node 7)
Injected flit rate average = 0.048875
	minimum = 0.04 (at node 8)
	maximum = 0.058 (at node 15)
Accepted flit rate average= 0.0484375
	minimum = 0.04 (at node 4)
	maximum = 0.059 (at node 7)
Injected packet length average = 1
Accepted packet length average = 1
Total in-flight flits = 23 (23 measured)
latency change    = 0.00786071
throughput change = 0.00645161
Class 0:
Packet latency average = 20.033
	minimum = 7
	maximum = 42
Network latency average = 20.033
	minimum = 7
	maximum = 42
Slowest packet = 4223
Flit latency average = 20.0659
	minimum = 7
	maximum = 42
Slowest flit = 4223
Fragmentation average = 0
	minimum = 0
	maximum = 0
Injected packet rate average = 0.0488333
	minimum = 0.0393333 (at node 6)
	maximum = 0.0593333 (at node 15)
Accepted packet rate average = 0.0487083
	minimum = 0.0426667 (at node 0)
	maximum = 0.058 (at node 7)
Injected flit rate average = 0.0488333
	minimum = 0.0393333 (at node 6)
	maximum = 0.0593333 (at node 15)
Accepted flit rate average= 0.0487083
	minimum = 0.0426667 (at node 0)
	maximum = 0.058 (at node 7)
Injected packet length average = 1
Accepted packet length average = 1
Total in-flight flits = 19 (19 measured)
latency change    = 0.00355243
throughput change = 0.00556031
Draining all recorded packets ...
Draining remaining packets ...
Time taken is 3069 cycles
Class 0:
Packet latency average = 19.9695
	minimum = 7
	maximum = 41
Network latency average = 19.9695
	minimum = 7
	maximum = 41
Slowest packet = 4809
Flit latency average = 19.9695
	minimum = 7
	maximum = 41
Slowest flit = 4809
Fragmentation average = 0
	minimum = 0
	maximum = 0
Injected packet rate average = 0.055
	minimum = 0.04 (at node 8)
	maximum = 0.072 (at node 3)
Accepted packet rate average = 0.05325
	minimum = 0.036 (at node 6)
	maximum = 0.07 (at node 14)
Injected flit rate average = 0.055
	minimum = 0.04 (at node 8)
	maximum = 0.072 (at node 3)
Accepted flit rate average= 0.05325
	minimum = 0.036 (at node 6)
	maximum = 0.07 (at node 14)
Injected packet length average = 1
Accepted packet length average = 1
Total in-flight flits = 14 (0 measured)
latency change    = 1
throughput change = 1
Class 0:
Packet latency average = 19.8404
	minimum = 7
	maximum = 41
Network latency average = 19.8404
	minimum = 7
	maximum = 41
Slowest packet = 4809
Flit latency average = 19.8404
	minimum = 7
	maximum = 41
Slowest flit = 4809
Fragmentation average = 0
	minimum = 0
	maximum = 0
Injected packet rate average = 0.051
	minimum = 0.038 (at node 4)
	maximum = 0.064 (at node 13)
Accepted packet rate average = 0.050125
	minimum = 0.039 (at node 2)
	maximum = 0.061 (at node 7)
Injected flit rate average = 0.051
	minimum = 0.038 (at node 4)
	maximum = 0.064 (at node 13)
Accepted flit rate average= 0.050125
	minimum = 0.039 (at node 2)
	maximum = 0.061 (at node 7)
Injected packet length average = 1
Accepted packet length average = 1
Total in-flight flits = 14 (0 measured)
latency change    = 0.00650615
throughput change = 0.0623441
Class 0:
Packet latency average = 19.3971
	minimum = 7
	maximum = 41
Network latency average = 19.3971
	minimum = 7
	maximum = 41
Slowest packet = 5620
Flit latency average = 19.3971
	minimum = 7
	maximum = 41
Slowest flit = 5620
Fragmentation average = 0
	minimum = 0
	maximum = 0
Injected packet rate average = 0.0525
	minimum = 0.036 (at node 12)
	maximum = 0.068 (at node 6)
Accepted packet rate average = 0.051625
	minimum = 0.024 (at node 13)
	maximum = 0.066 (at node 9)
Injected flit rate average = 0.0525
	minimum = 0.036 (at node 12)
	maximum = 0.068 (at node 6)
Accepted flit rate average= 0.051625
	minimum = 0.024 (at node 13)
	maximum = 0.066 (at node 9)
Injected packet length average = 1
Accepted packet length average = 1
Total in-flight flits = 21 (0 measured)
latency change    = 0.0228542
throughput change = 0.0290557
Warmed up ...Time used is 1500 cycles
Class 0:
Packet latency average = 20.3496
	minimum = 7
	maximum = 45
Network latency average = 20.3496
	minimum = 7
	maximum = 45
Slowest packet = 6225
Flit latency average = 20.5
	minimum = 7
	maximum = 45
Slowest flit = 6225
Fragmentation average = 0
	minimum = 0
	maximum = 0
Injected packet rate average = 0.04825
	minimum = 0.036 (at node 10)
	maximum = 0.06 (at node 3)
Accepted packet rate average = 0.04875
	minimum = 0.038 (at node 3)
	maximum = 0.064 (at node 8)
Injected flit rate average = 0.04825
	minimum = 0.036 (at node 10)
	maximum = 0.06 (at node 3)
Accepted flit rate average= 0.04875
	minimum = 0.038 (at node 3)
	maximum = 0.064 (at node 8)
Injected packet length average = 1
Accepted packet length average = 1
Total in-flight flits = 17 (17 measured)
latency change    = 0.0468068
throughput change = 0.0589744
Class 0:
Packet latency average = 20.2494
	minimum = 7
	maximum = 45
Network latency average = 20.2494
	minimum = 7
	maximum = 45
Slowest packet = 6225
Flit latency average = 20.3258
	minimum = 7
	maximum = 45
Slowest flit = 6225
Fragmentation average = 0
	minimum = 0
	maximum = 0
Injected packet rate average = 0.049625
	minimum = 0.041 (at node 7)
	maximum = 0.058 (at node 4)
Accepted packet rate average = 0.0496875
	minimum = 0.042 (at node 3)
	maximum = 0.062 (at node 8)
Injected flit rate average = 0.049625
	minimum = 0.041 (at node 7)
	maximum = 0.058 (at node 4)
Accepted flit rate average= 0.0496875
	minimum = 0.042 (at node 3)
	maximum = 0.062 (at node 8)
Injected packet length average = 1
Accepted packet length average = 1
Total in-flight flits = 20 (20 measured)
latency change    = 0.00495026
throughput change = 0.0188679
Class 0:
Packet latency average = 20.1203
	minimum = 7
	maximum = 45
Network latency average = 20.1203
	minimum = 7
	maximum = 45
Slowest packet = 6225
Flit latency average = 20.1724
	minimum = 7
	maximum = 45
Slowest flit = 6225
Fragmentation average = 0
	minimum = 0
	maximum = 0
Injected packet rate average = 0.0504583
	minimum = 0.0413333 (at node 13)
	maximum = 0.0613333 (at node 6)
Accepted packet rate average = 0.05075
	minimum = 0.0453333 (at node 14)
	maximum = 0.0626667 (at node 8)
Injected flit rate average = 0.0504583
	minimum = 0.0413333 (at node 13)
	maximum = 0.0613333 (at node 6)
Accepted flit rate average= 0.05075
	minimum = 0.0453333 (at node 14)
	maximum = 0.0626667 (at node 8)
Injected packet length average = 1
Accepted packet length average = 1
Total in-flight flits = 14 (14 measured)
latency change    = 0.00641408
throughput change = 0.020936
Class 0:
Packet latency average = 20.1046
	minimum = 7
	maximum = 45
Network latency average = 20.1046
	minimum = 7
	maximum = 45
Slowest packet = 6225
Flit latency average = 20.1445
	minimum = 7
	maximum = 45
Slowest flit = 6225
Fragmentation average = 0
	minimum = 0
	maximum = 0
Injected packet rate average = 0.0495
	minimum = 0.041 (at node 13)
	maximum = 0.057 (at node 6)
Accepted packet rate average = 0.0499687
	minimum = 0.0445 (at node 3)
	maximum = 0.0615 (at node 8)
Injected flit rate average = 0.0495
	minimum = 0.041 (at node 13)
	maximum = 0.057 (at node 6)
Accepted flit rate average= 0.0499687
	minimum = 0.0445 (at node 3)
	maximum = 0.0615 (at node 8)
Injected packet length average = 1
Accepted packet length average = 1
Total in-flight flits = 6 (6 measured)
latency change    = 0.000782808
throughput change = 0.0156348
Draining all recorded packets ...
Draining remaining packets ...
Time taken is 3565 cycles
Class 0:
Packet latency average = 19.9803
	minimum = 7
	maximum = 47
Network latency average = 19.9803
	minimum = 7
	maximum = 47
Slowest packet = 7754
Flit latency average = 19.9803
	minimum = 7
	maximum = 47
Slowest flit = 7754
Fragmentation average = 0
	minimum = 0
	maximum = 0
Injected packet rate average = 0.04725
	minimum = 0.034 (at node 0)
	maximum = 0.056 (at node 12)
Accepted packet rate average = 0.044375
	minimum = 0.026 (at node 6)
	maximum = 0.064 (at node 12)
Injected flit rate average = 0.04725
	minimum = 0.034 (at node 0)
	maximum = 0.056 (at node 12)
Accepted flit rate average= 0.044375
	minimum = 0.026 (at node 6)
	maximum = 0.064 (at node 12)
Injected packet length average = 1
Accepted packet length average = 1
Total in-flight flits = 23 (0 measured)
latency change    = 1
throughput change = 1
Class 0:
Packet latency average = 19.81
	minimum = 7
	maximum = 47
Network latency average = 19.81
	minimum = 7
	maximum = 47
Slowest packet = 7754
Flit latency average = 19.81
	minimum = 7
	maximum = 47
Slowest flit = 7754
Fragmentation average = 0
	minimum = 0
	maximum = 0
Injected packet rate average = 0.048625
	minimum = 0.04 (at node 1)
	maximum = 0.058 (at node 11)
Accepted packet rate average = 0.0476875
	minimum = 0.032 (at node 4)
	maximum = 0.061 (at node 3)
Injected flit rate average = 0.048625
	minimum = 0.04 (at node 1)
	maximum = 0.058 (at node 11)
Accepted flit rate average= 0.0476875
	minimum = 0.032 (at node 4)
	maximum = 0.061 (at node 3)
Injected packet length average = 1
Accepted packet length average = 1
Total in-flight flits = 15 (0 measured)
latency change    = 0.00859775
throughput change = 0.0694626
Class 0:
Packet latency average = 19.3071
	minimum = 7
	maximum = 42
Network latency average = 19.3071
	minimum = 7
	maximum = 42
Slowest packet = 8516
Flit latency average = 19.3071
	minimum = 7
	maximum = 42
Slowest flit = 8516
Fragmentation average = 0
	minimum = 0
	maximum = 0
Injected packet rate average = 0.04775
	minimum = 0.038 (at node 3)
	maximum = 0.064 (at node 9)
Accepted packet rate average = 0.047625
	minimum = 0.032 (at node 10)
	maximum = 0.07 (at node 2)
Injected flit rate average = 0.04775
	minimum = 0.038 (at node 3)
	maximum = 0.064 (at node 9)
Accepted flit rate average= 0.047625
	minimum = 0.032 (at node 10)
	maximum = 0.07 (at node 2)
Injected packet length average = 1
Accepted packet length average = 1
Total in-flight flits = 16 (0 measured)
latency change    = 0.0260461
throughput change = 0.00131234
Warmed up ...Time used is 1500 cycles
Class 0:
Packet latency average = 20.1481
	minimum = 7
	maximum = 42
Network latency average = 20.1481
	minimum = 7
	maximum = 42
Slowest packet = 9134
Flit latency average = 20.2664
	minimum = 7
	maximum = 42
Slowest flit = 9134
Fragmentation average = 0
	minimum = 0
	maximum = 0
Injected packet rate average = 0.054125
	minimum = 0.038 (at node 3)
	maximum = 0.082 (at node 0)
Accepted packet rate average = 0.0535
	minimum = 0.038 (at node 12)
	maximum = 0.08 (at node 0)
Injected flit rate average = 0.054125
	minimum = 0.038 (at node 3)
	maximum = 0.082 (at node 0)
Accepted flit rate average= 0.0535
	minimum = 0.038 (at node 12)
	maximum = 0.08 (at node 0)
Injected packet length average = 1
Accepted packet length average = 1
Total in-flight flits = 21 (21 measured)
latency change    = 0.0417396
throughput change = 0.109813
Class 0:
Packet latency average = 20.4498
	minimum = 7
	maximum = 46
Network latency average = 20.4498
	minimum = 7
	maximum = 46
Slowest packet = 9441
Flit latency average = 20.5048
	minimum = 7
	maximum = 46
Slowest flit = 9441
Fragmentation average = 0
	minimum = 0
	maximum = 0
Injected packet rate average = 0.052
	minimum = 0.038 (at node 14)
	maximum = 0.073 (at node 0)
Accepted packet rate average = 0.052
	minimum = 0.042 (at node 9)
	maximum = 0.063 (at node 0)
Injected flit rate average = 0.052
	minimum = 0.038 (at node 14)
	maximum = 0.073 (at node 0)
Accepted flit rate average= 0.052
	minimum = 0.042 (at node 9)
	maximum = 0.063 (at node 0)
Injected packet length average = 1
Accepted packet length average = 1
Total in-flight flits = 16 (16 measured)
latency change    = 0.0147531
throughput change = 0.0288462
Class 0:
Packet latency average = 20.2407
	minimum = 7
	maximum = 46
Network latency average = 20.2407
	minimum = 7
	maximum = 46
Slowest packet = 9441
Flit latency average = 20.2798
	minimum = 7
	maximum = 46
Slowest flit = 9441
Fragmentation average = 0
	minimum = 0
	maximum = 0
Injected packet rate average = 0.0522917
	minimum = 0.0393333 (at node 14)
	maximum = 0.0666667 (at node 0)
Accepted packet rate average = 0.0524167
	minimum = 0.0453333 (at node 9)
	maximum = 0.0626667 (at node 10)
Injected flit rate average = 0.0522917
	minimum = 0.0393333 (at node 14)
	maximum = 0.0666667 (at node 0)
Accepted flit rate average= 0.0524167
	minimum = 0.0453333 (at node 9)
	maximum = 0.0626667 (at node 10)
Injected packet length average = 1
Accepted packet length average = 1
Total in-flight flits = 13 (13 measured)
latency change    = 0.0103264
throughput change = 0.00794913
Class 0:
Packet latency average = 20.0694
	minimum = 7
	maximum = 46
Network latency average = 20.0694
	minimum = 7
	maximum = 46
Slowest packet = 9441
Flit latency average = 20.1004
	minimum = 7
	maximum = 46
Slowest flit = 9441
Fragmentation average = 0
	minimum = 0
	maximum = 0
Injected packet rate average = 0.0524063
	minimum = 0.0415 (at node 14)
	maximum = 0.0635 (at node 0)
Accepted packet rate average = 0.0522813
	minimum = 0.046 (at node 9)
	maximum = 0.06 (at node 10)
Injected flit rate average = 0.0524063
	minimum = 0.0415 (at node 14)
	maximum = 0.0635 (at node 0)
Accepted flit rate average= 0.0522813
	minimum = 0.046 (at node 9)
	maximum = 0.06 (at node 10)
Injected packet length average = 1
Accepted packet length average = 1
Total in-flight flits = 20 (20 measured)
latency change    = 0.00853728
throughput change = 0.00259016
Draining all recorded packets ...
Draining remaining packets ...
Time taken is 3557 cycles
Class 0:
Packet latency average = 20.1777
	minimum = 7
	maximum = 44
Network latency average = 20.1777
	minimum = 7
	maximum = 44
Slowest packet = 10544
Flit latency average = 20.1777
	minimum = 7
	maximum = 44
Slowest flit = 10544
Fragmentation average = 0
	minimum = 0
	maximum = 0
Injected packet rate average = 0.05475
	minimum = 0.032 (at node 4)
	maximum = 0.08 (at node 10)
Accepted packet rate average = 0.05275
	minimum = 0.04 (at node 0)
	maximum = 0.066 (at node 7)
Injected flit rate average = 0.05475
	minimum = 0.032 (at node 4)
	maximum = 0.08 (at node 10)
Accepted flit rate average= 0.05275
	minimum = 0.04 (at node 0)
	maximum = 0.066 (at node 7)
Injected packet length average = 1
Accepted packet length average = 1
Total in-flight flits = 16 (0 measured)
latency change    = 1
throughput change = 1
Class 0:
Packet latency average = 19.7521
	minimum = 7
	maximum = 44
Network latency average = 19.7521
	minimum = 7
	maximum = 44
Slowest packet = 10544
Flit latency average = 19.7521
	minimum = 7
	maximum = 44
Slowest flit = 10544
Fragmentation average = 0
	minimum = 0
	maximum = 0
Injected packet rate average = 0.053125
	minimum = 0.041 (at node 4)
	maximum = 0.07 (at node 11)
Accepted packet rate average = 0.0519375
	minimum = 0.038 (at node 0)
	maximum = 0.064 (at node 5)
Injected flit rate average = 0.053125
	minimum = 0.041 (at node 4)
	maximum = 0.07 (at node 11)
Accepted flit rate average= 0.0519375
	minimum = 0.038 (at node 0)
	maximum = 0.064 (at node 5)
Injected packet length average = 1
Accepted packet length average = 1
Total in-flight flits = 19 (0 measured)
latency change    = 0.021548
throughput change = 0.0156438
Class 0:
Packet latency average = 19.907
	minimum = 7
	maximum = 44
Network latency average = 19.907
	minimum = 7
	maximum = 44
Slowest packet = 11436
Flit latency average = 19.907
	minimum = 7
	maximum = 44
Slowest flit = 11436
Fragmentation average = 0
	minimum = 0
	maximum = 0
Injected packet rate average = 0.048625
	minimum = 0.034 (at node 6)
	maximum = 0.066 (at node 10)
Accepted packet rate average = 0.04975
	minimum = 0.024 (at node 4)
	maximum = 0.07 (at node 9)
Injected flit rate average = 0.048625
	minimum = 0.034 (at node 6)
	maximum = 0.066 (at node 10)
Accepted flit rate average= 0.04975
	minimum = 0.024 (at node 4)
	maximum = 0.07 (at node 9)
Injected packet length average = 1
Accepted packet length average = 1
Total in-flight flits = 10 (0 measured)
latency change    = 0.00778264
throughput change = 0.0439698
Warmed up ...Time used is 1500 cycles
Class 0:
Packet latency average = 19.7013
	minimum = 7
	maximum = 41
Network latency average = 19.7013
	minimum = 7
	maximum = 41
Slowest packet = 11845
Flit latency average = 19.8278
	minimum = 7
	maximum = 41
Slowest flit = 11845
Fragmentation average = 0
	minimum = 0
	maximum = 0
Injected packet rate average = 0.049625
	minimum = 0.034 (at node 9)
	maximum = 0.064 (at node 2)
Accepted packet rate average = 0.049375
	minimum = 0.032 (at node 8)
	maximum = 0.068 (at node 0)
Injected flit rate average = 0.049625
	minimum = 0.034 (at node 9)
	maximum = 0.064 (at node 2)
Accepted flit rate average= 0.049375
	minimum = 0.032 (at node 8)
	maximum = 0.068 (at node 0)
Injected packet length average = 1
Accepted packet length average = 1
Total in-flight flits = 12 (12 measured)
latency change    = 0.0104428
throughput change = 0.00759494
Class 0:
Packet latency average = 19.8361
	minimum = 7
	maximum = 41
Network latency average = 19.8361
	minimum = 7
	maximum = 41
Slowest packet = 11845
Flit latency average = 19.8981
	minimum = 7
	maximum = 41
Slowest flit = 11845
Fragmentation average = 0
	minimum = 0
	maximum = 0
Injected packet rate average = 0.04925
	minimum = 0.038 (at node 12)
	maximum = 0.061 (at node 15)
Accepted packet rate average = 0.0490625
	minimum = 0.037 (at node 8)
	maximum = 0.062 (at node 0)
Injected flit rate average = 0.04925
	minimum = 0.038 (at node 12)
	maximum = 0.061 (at node 15)
Accepted flit rate average= 0.0490625
	minimum = 0.037 (at node 8)
	maximum = 0.062 (at node 0)
Injected packet length average = 1
Accepted packet length average = 1
Total in-flight flits = 13 (13 measured)
latency change    = 0.00679721
throughput change = 0.00636943
Class 0:
Packet latency average = 19.7712
	minimum = 7
	maximum = 42
Network latency average = 19.7712
	minimum = 7
	maximum = 42
Slowest packet = 12619
Flit latency average = 19.8126
	minimum = 7
	maximum = 42
Slowest flit = 12619
Fragmentation average = 0
	minimum = 0
	maximum = 0
Injected packet rate average = 0.049625
	minimum = 0.038 (at node 0)
	maximum = 0.0593333 (at node 15)
Accepted packet rate average = 0.0495833
	minimum = 0.0393333 (at node 12)
	maximum = 0.062 (at node 0)
Injected flit rate average = 0.049625
	minimum = 0.038 (at node 0)
	maximum = 0.0593333 (at node 15)
Accepted flit rate average= 0.0495833
	minimum = 0.0393333 (at node 12)
	maximum = 0.062 (at node 0)
Injected packet length average = 1
Accepted packet length average = 1
Total in-flight flits = 11 (11 measured)
latency change    = 0.00328471
throughput change = 0.0105042
Draining all recorded packets ...
Draining remaining packets ...
Time taken is 3047 cycles
Class 0:
Packet latency average = 19.0659
	minimum = 7
	maximum = 41
Network latency average = 19.0659
	minimum = 7
	maximum = 41
Slowest packet = 12948
Flit latency average = 19.0659
	minimum = 7
	maximum = 41
Slowest flit = 12948
Fragmentation average = 0
	minimum = 0
	maximum = 0
Injected packet rate average = 0.046625
	minimum = 0.028 (at node 13)
	maximum = 0.062 (at node 5)
Accepted packet rate average = 0.0455
	minimum = 0.032 (at node 11)
	maximum = 0.058 (at node 6)
Injected flit rate average = 0.046625
	minimum = 0.028 (at node 13)
	maximum = 0.062 (at node 5)
Accepted flit rate average= 0.0455
	minimum = 0.032 (at node 11)
	maximum = 0.058 (at node 6)
Injected packet length average = 1
Accepted packet length average = 1
Total in-flight flits = 9 (0 measured)
latency change    = 1
throughput change = 1
Class 0:
Packet latency average = 19.4452
	minimum = 7
	maximum = 45
Network latency average = 19.4452
	minimum = 7
	maximum = 45
Slowest packet = 13422
Flit latency average = 19.4452
	minimum = 7
	maximum = 45
Slowest flit = 13422
Fragmentation average = 0
	minimum = 0
	maximum = 0
Injected packet rate average = 0.0495625
	minimum = 0.041 (at node 7)
	maximum = 0.058 (at node 0)
Accepted packet rate average = 0.0484375
	minimum = 0.035 (at node 2)
	maximum = 0.06 (at node 10)
Injected flit rate average = 0.0495625
	minimum = 0.041 (at node 7)
	maximum = 0.058 (at node 0)
Accepted flit rate average= 0.0484375
	minimum = 0.035 (at node 2)
	maximum = 0.06 (at node 10)
Injected packet length average = 1
Accepted packet length average = 1
Total in-flight flits = 18 (0 measured)
latency change    = 0.0195024
throughput change = 0.0606452
Class 0:
Packet latency average = 19.883
	minimum = 7
	maximum = 43
Network latency average = 19.883
	minimum = 7
	maximum = 43
Slowest packet = 13782
Flit latency average = 19.883
	minimum = 7
	maximum = 43
Slowest flit = 13782
Fragmentation average = 0
	minimum = 0
	maximum = 0
Injected packet rate average = 0.044375
	minimum = 0.032 (at node 15)
	maximum = 0.062 (at node 12)
Accepted packet rate average = 0.044875
	minimum = 0.024 (at node 14)
	maximum = 0.062 (at node 15)
Injected flit rate average = 0.044375
	minimum = 0.032 (at node 15)
	maximum = 0.062 (at node 12)
Accepted flit rate average= 0.044875
	minimum = 0.024 (at node 14)
	maximum = 0.062 (at node 15)
Injected packet length average = 1
Accepted packet length average = 1
Total in-flight flits = 14 (0 measured)
latency change    = 0.0220212
throughput change = 0.0793872
Warmed up ...Time used is 1500 cycles
Class 0:
Packet latency average = 20.1963
	minimum = 7
	maximum = 41
Network latency average = 20.1963
	minimum = 7
	maximum = 41
Slowest packet = 14415
Flit latency average = 20.2399
	minimum = 7
	maximum = 41
Slowest flit = 14415
Fragmentation average = 0
	minimum = 0
	maximum = 0
Injected packet rate average = 0.05
	minimum = 0.03 (at node 10)
	maximum = 0.076 (at node 14)
Accepted packet rate average = 0.0495
	minimum = 0.03 (at node 14)
	maximum = 0.082 (at node 13)
Injected flit rate average = 0.05
	minimum = 0.03 (at node 10)
	maximum = 0.076 (at node 14)
Accepted flit rate average= 0.0495
	minimum = 0.03 (at node 14)
	maximum = 0.082 (at node 13)
Injected packet length average = 1
Accepted packet length average = 1
Total in-flight flits = 18 (18 measured)
latency change    = 0.015514
throughput change = 0.0934343
Class 0:
Packet latency average = 19.9975
	minimum = 7
	maximum = 48
Network latency average = 19.9975
	minimum = 7
	maximum = 48
Slowest packet = 14591
Flit latency average = 20.0219
	minimum = 7
	maximum = 48
Slowest flit = 14591
Fragmentation average = 0
	minimum = 0
	maximum = 0
Injected packet rate average = 0.051625
	minimum = 0.04 (at node 6)
	maximum = 0.062 (at node 7)
Accepted packet rate average = 0.0513125
	minimum = 0.037 (at node 14)
	maximum = 0.07 (at node 13)
Injected flit rate average = 0.051625
	minimum = 0.04 (at node 6)
	maximum = 0.062 (at node 7)
Accepted flit rate average= 0.0513125
	minimum = 0.037 (at node 14)
	maximum = 0.07 (at node 13)
Injected packet length average = 1
Accepted packet length average = 1
Total in-flight flits = 19 (19 measured)
latency change    = 0.0099419
throughput change = 0.0353228
Class 0:
Packet latency average = 20.2198
	minimum = 7
	maximum = 48
Network latency average = 20.2198
	minimum = 7
	maximum = 48
Slowest packet = 14591
Flit latency average = 20.2334
	minimum = 7
	maximum = 48
Slowest flit = 14591
Fragmentation average = 0
	minimum = 0
	maximum = 0
Injected packet rate average = 0.0515
	minimum = 0.0433333 (at node 5)
	maximum = 0.0606667 (at node 4)
Accepted packet rate average = 0.0515833
	minimum = 0.0393333 (at node 6)
	maximum = 0.0633333 (at node 13)
Injected flit rate average = 0.0515
	minimum = 0.0433333 (at node 5)
	maximum = 0.0606667 (at node 4)
Accepted flit rate average= 0.0515833
	minimum = 0.0393333 (at node 6)
	maximum = 0.0633333 (at node 13)
Injected packet length average = 1
Accepted packet length average = 1
Total in-flight flits = 12 (12 measured)
latency change    = 0.0109917
throughput change = 0.0052504
Class 0:
Packet latency average = 20.1657
	minimum = 7
	maximum = 48
Network latency average = 20.1657
	minimum = 7
	maximum = 48
Slowest packet = 14591
Flit latency average = 20.1765
	minimum = 7
	maximum = 48
Slowest flit = 14591
Fragmentation average = 0
	minimum = 0
	maximum = 0
Injected packet rate average = 0.0515313
	minimum = 0.042 (at node 5)
	maximum = 0.06 (at node 7)
Accepted packet rate average = 0.0511563
	minimum = 0.04 (at node 6)
	maximum = 0.061 (at node 13)
Injected flit rate average = 0.0515313
	minimum = 0.042 (at node 5)
	maximum = 0.06 (at node 7)
Accepted flit rate average= 0.0511563
	minimum = 0.04 (at node 6)
	maximum = 0.061 (at node 13)
Injected packet length average = 1
Accepted packet length average = 1
Total in-flight flits = 26 (26 measured)
latency change    = 0.00267924
throughput change = 0.00834861
Draining all recorded packets ...
Draining remaining packets ...
Time taken is 3559 cycles
Class 0:
Packet latency average = 20.1398
	minimum = 7
	maximum = 44
Network latency average = 20.1398
	minimum = 7
	maximum = 44
Slowest packet = 15856
Flit latency average = 20.1398
	minimum = 7
	maximum = 44
Slowest flit = 15856
Fragmentation average = 0
	minimum = 0
	maximum = 0
Injected packet rate average = 0.049
	minimum = 0.04 (at node 11)
	maximum = 0.058 (at node 1)
Accepted packet rate average = 0.0465
	minimum = 0.032 (at node 10)
	maximum = 0.058 (at node 4)
Injected flit rate average = 0.049
	minimum = 0.04 (at node 11)
	maximum = 0.058 (at node 1)
Accepted flit rate average= 0.0465
	minimum = 0.032 (at node 10)
	maximum = 0.058 (at node 4)
Injected packet length average = 1
Accepted packet length average = 1
Total in-flight flits = 20 (0 measured)
latency change    = 1
throughput change = 1
Class 0:
Packet latency average = 20.2272
	minimum = 7
	maximum = 47
Network latency average = 20.2272
	minimum = 7
	maximum = 47
Slowest packet = 16325
Flit latency average = 20.2272
	minimum = 7
	maximum = 47
Slowest flit = 16325
Fragmentation average = 0
	minimum = 0
	maximum = 0
Injected packet rate average = 0.052
	minimum = 0.041 (at node 15)
	maximum = 0.06 (at node 7)
Accepted packet rate average = 0.050625
	minimum = 0.036 (at node 9)
	maximum = 0.067 (at node 6)
Injected flit rate average = 0.052
	minimum = 0.041 (at node 15)
	maximum = 0.06 (at node 7)
Accepted flit rate average= 0.050625
	minimum = 0.036 (at node 9)
	maximum = 0.067 (at node 6)
Injected packet length average = 1
Accepted packet length average = 1
Total in-flight flits = 22 (0 measured)
latency change    = 0.00431971
throughput change = 0.0814815
Class 0:
Packet latency average = 20.3005
	minimum = 7
	maximum = 44
Network latency average = 20.3005
	minimum = 7
	maximum = 44
Slowest packet = 16759
Flit latency average = 20.3005
	minimum = 7
	maximum = 44
Slowest flit = 16759
Fragmentation average = 0
	minimum = 0
	maximum = 0
Injected packet rate average = 0.051375
	minimum = 0.026 (at node 5)
	maximum = 0.078 (at node 9)
Accepted packet rate average = 0.052
	minimum = 0.034 (at node 4)
	maximum = 0.064 (at node 1)
Injected flit rate average = 0.051375
	minimum = 0.026 (at node 5)
	maximum = 0.078 (at node 9)
Accepted flit rate average= 0.052
	minimum = 0.034 (at node 4)
	maximum = 0.064 (at node 1)
Injected packet length average = 1
Accepted packet length average = 1
Total in-flight flits = 17 (0 measured)
latency change    = 0.00361175
throughput change = 0.0264423
Warmed up ...Time used is 1500 cycles
Class 0:
Packet latency average = 20.4303
	minimum = 7
	maximum = 46
Network latency average = 20.4303
	minimum = 7
	maximum = 46
Slowest packet = 17224
Flit latency average = 20.5489
	minimum = 7
	maximum = 46
Slowest flit = 17224
Fragmentation average = 0
	minimum = 0
	maximum = 0
Injected packet rate average = 0.052625
	minimum = 0.032 (at node 11)
	maximum = 0.07 (at node 5)
Accepted packet rate average = 0.052375
	minimum = 0.042 (at node 9)
	maximum = 0.066 (at node 4)
Injected flit rate average = 0.052625
	minimum = 0.032 (at node 11)
	maximum = 0.07 (at node 5)
Accepted flit rate average= 0.052375
	minimum = 0.042 (at node 9)
	maximum = 0.066 (at node 4)
Injected packet length average = 1
Accepted packet length average = 1
Total in-flight flits = 19 (19 measured)
latency change    = 0.0063566
throughput change = 0.0071599
Class 0:
Packet latency average = 19.8929
	minimum = 7
	maximum = 47
Network latency average = 19.8929
	minimum = 7
	maximum = 47
Slowest packet = 17546
Flit latency average = 19.9646
	minimum = 7
	maximum = 47
Slowest flit = 17546
Fragmentation average = 0
	minimum = 0
	maximum = 0
Injected packet rate average = 0.0509375
	minimum = 0.038 (at node 11)
	maximum = 0.064 (at node 13)
Accepted packet rate average = 0.05125
	minimum = 0.038 (at node 9)
	maximum = 0.064 (at node 4)
Injected flit rate average = 0.0509375
	minimum = 0.038 (at node 11)
	maximum = 0.064 (at node 13)
Accepted flit rate average= 0.05125
	minimum = 0.038 (at node 9)
	maximum = 0.064 (at node 4)
Injected packet length average = 1
Accepted packet length average = 1
Total in-flight flits = 12 (12 measured)
latency change    = 0.027017
throughput change = 0.0219512
Class 0:
Packet latency average = 20.177
	minimum = 7
	maximum = 51
Network latency average = 20.177
	minimum = 7
	maximum = 51
Slowest packet = 18075
Flit latency average = 20.2207
	minimum = 7
	maximum = 51
Slowest flit = 18075
Fragmentation average = 0
	minimum = 0
	maximum = 0
Injected packet rate average = 0.0512917
	minimum = 0.0446667 (at node 1)
	maximum = 0.0606667 (at node 13)
Accepted packet rate average = 0.0515417
	minimum = 0.0426667 (at node 9)
	maximum = 0.058 (at node 3)
Injected flit rate average = 0.0512917
	minimum = 0.0446667 (at node 1)
	maximum = 0.0606667 (at node 13)
Accepted flit rate average= 0.0515417
	minimum = 0.0426667 (at node 9)
	maximum = 0.058 (at node 3)
Injected packet length average = 1
Accepted packet length average = 1
Total in-flight flits = 11 (11 measured)
latency change    = 0.0140827
throughput change = 0.00565885
Draining all recorded packets ...
Draining remaining packets ...
Time taken is 3046 cycles
Class 0:
Packet latency average = 19.9716
	minimum = 7
	maximum = 46
Network latency average = 19.9716
	minimum = 7
	maximum = 46
Slowest packet = 18518
Flit latency average = 19.9716
	minimum = 7
	maximum = 46
Slowest flit = 18518
Fragmentation average = 0
	minimum = 0
	maximum = 0
Injected packet rate average = 0.051125
	minimum = 0.038 (at node 2)
	maximum = 0.064 (at node 7)
Accepted packet rate average = 0.0485
	minimum = 0.03 (at node 2)
	maximum = 0.068 (at node 11)
Injected flit rate average = 0.051125
	minimum = 0.038 (at node 2)
	maximum = 0.064 (at node 7)
Accepted flit rate average= 0.0485
	minimum = 0.03 (at node 2)
	maximum = 0.068 (at node 11)
Injected packet length average = 1
Accepted packet length average = 1
Total in-flight flits = 21 (0 measured)
latency change    = 1
throughput change = 1
Class 0:
Packet latency average = 20.1662
	minimum = 7
	maximum = 46
Network latency average = 20.1662
	minimum = 7
	maximum = 46
Slowest packet = 18518
Flit latency average = 20.1662
	minimum = 7
	maximum = 46
Slowest flit = 18518
Fragmentation average = 0
	minimum = 0
	maximum = 0
Injected packet rate average = 0.04725
	minimum = 0.039 (at node 0)
	maximum = 0.058 (at node 10)
Accepted packet rate average = 0.04625
	minimum = 0.035 (at node 2)
	maximum = 0.069 (at node 11)
Injected flit rate average = 0.04725
	minimum = 0.039 (at node 0)
	maximum = 0.058 (at node 10)
Accepted flit rate average= 0.04625
	minimum = 0.035 (at node 2)
	maximum = 0.069 (at node 11)
Injected packet length average = 1
Accepted packet length average = 1
Total in-flight flits = 16 (0 measured)
latency change    = 0.00964815
throughput change = 0.0486486
Class 0:
Packet latency average = 19.8585
	minimum = 7
	maximum = 47
Network latency average = 19.8585
	minimum = 7
	maximum = 47
Slowest packet = 18991
Flit latency average = 19.8585
	minimum = 7
	maximum = 47
Slowest flit = 18991
Fragmentation average = 0
	minimum = 0
	maximum = 0
Injected packet rate average = 0.052
	minimum = 0.04 (at node 6)
	maximum = 0.066 (at node 3)
Accepted packet rate average = 0.052125
	minimum = 0.032 (at node 12)
	maximum = 0.066 (at node 4)
Injected flit rate average = 0.052
	minimum = 0.04 (at node 6)
	maximum = 0.066 (at node 3)
Accepted flit rate average= 0.052125
	minimum = 0.032 (at node 12)
	maximum = 0.066 (at node 4)
Injected packet length average = 1
Accepted packet length average = 1
Total in-flight flits = 15 (0 measured)
latency change    = 0.0154948
throughput change = 0.11271
Warmed up ...Time used is 1500 cycles
Class 0:
Packet latency average = 19.0712
	minimum = 7
	maximum = 38
Network latency average = 19.0712
	minimum = 7
	maximum = 38
Slowest packet = 19440
Flit latency average = 19.2892
	minimum = 7
	maximum = 38
Slowest flit = 19440
Fragmentation average = 0
	minimum = 0
	maximum = 0
Injected packet rate average = 0.051125
	minimum = 0.038 (at node 14)
	maximum = 0.064 (at node 12)
Accepted packet rate average = 0.051
	minimum = 0.038 (at node 11)
	maximum = 0.066 (at node 9)
Injected flit rate average = 0.051125
	minimum = 0.038 (at node 14)
	maximum = 0.064 (at node 12)
Accepted flit rate average= 0.051
	minimum = 0.038 (at node 11)
	maximum = 0.066 (at node 9)
Injected packet length average = 1
Accepted packet length average = 1
Total in-flight flits = 16 (16 measured)
latency change    = 0.0412803
throughput change = 0.0220588
Class 0:
Packet latency average = 19.2694
	minimum = 7
	maximum = 44
Network latency average = 19.2694
	minimum = 7
	maximum = 44
Slowest packet = 19907
Flit latency average = 19.3752
	minimum = 7
	maximum = 44
Slowest flit = 19907
Fragmentation average = 0
	minimum = 0
	maximum = 0
Injected packet rate average = 0.050625
	minimum = 0.033 (at node 15)
	maximum = 0.064 (at node 13)
Accepted packet rate average = 0.0508125
	minimum = 0.041 (at node 10)
	maximum = 0.064 (at node 4)
Injected flit rate average = 0.050625
	minimum = 0.033 (at node 15)
	maximum = 0.064 (at node 13)
Accepted flit rate average= 0.0508125
	minimum = 0.041 (at node 10)
	maximum = 0.064 (at node 4)
Injected packet length average = 1
Accepted packet length average = 1
Total in-flight flits = 12 (12 measured)
latency change    = 0.0102845
throughput change = 0.00369004
Class 0:
Packet latency average = 19.4158
	minimum = 7
	maximum = 53
Network latency average = 19.4158
	minimum = 7
	maximum = 53
Slowest packet = 20303
Flit latency average = 19.4861
	minimum = 7
	maximum = 53
Slowest flit = 20303
Fragmentation average = 0
	minimum = 0
	maximum = 0
Injected packet rate average = 0.0495833
	minimum = 0.036 (at node 15)
	maximum = 0.0626667 (at node 11)
Accepted packet rate average = 0.049625
	minimum = 0.0413333 (at node 2)
	maximum = 0.0633333 (at node 4)
Injected flit rate average = 0.0495833
	minimum = 0.036 (at node 15)
	maximum = 0.0626667 (at node 11)
Accepted flit rate average= 0.049625
	minimum = 0.0413333 (at node 2)
	maximum = 0.0633333 (at node 4)
Injected packet length average = 1
Accepted packet length average = 1
Total in-flight flits = 14 (14 measured)
latency change    = 0.00753987
throughput change = 0.0239295
Draining all recorded packets ...
Draining remaining packets ...
Time taken is 3034 cycles
Class 0:
Packet latency average = 19.7493
	minimum = 7
	maximum = 40
Network latency average = 19.7493
	minimum = 7
	maximum = 40
Slowest packet = 20625
Flit latency average = 19.7493
	minimum = 7
	maximum = 40
Slowest flit = 20625
Fragmentation average = 0
	minimum = 0
	maximum = 0
Injected packet rate average = 0.047125
	minimum = 0.034 (at node 2)
	maximum = 0.068 (at node 7)
Accepted packet rate average = 0.045375
	minimum = 0.034 (at node 12)
	maximum = 0.064 (at node 2)
Injected flit rate average = 0.047125
	minimum = 0.034 (at node 2)
	maximum = 0.068 (at node 7)
Accepted flit rate average= 0.045375
	minimum = 0.034 (at node 12)
	maximum = 0.064 (at node 2)
Injected packet length average = 1
Accepted packet length average = 1
Total in-flight flits = 14 (0 measured)
latency change    = 1
throughput change = 1
Class 0:
Packet latency average = 20.1451
	minimum = 7
	maximum = 45
Network latency average = 20.1451
	minimum = 7
	maximum = 45
Slowest packet = 21063
Flit latency average = 20.1451
	minimum = 7
	maximum = 45
Slowest flit = 21063
Fragmentation average = 0
	minimum = 0
	maximum = 0
Injected packet rate average = 0.0475625
	minimum = 0.036 (at node 6)
	maximum = 0.072 (at node 7)
Accepted packet rate average = 0.0469375
	minimum = 0.034 (at node 0)
	maximum = 0.063 (at node 2)
Injected flit rate average = 0.0475625
	minimum = 0.036 (at node 6)
	maximum = 0.072 (at node 7)
Accepted flit rate average= 0.0469375
	minimum = 0.034 (at node 0)
	maximum = 0.063 (at node 2)
Injected packet length average = 1
Accepted packet length average = 1
Total in-flight flits = 10 (0 measured)
latency change    = 0.0196488
throughput change = 0.0332889
Class 0:
Packet latency average = 21.0258
	minimum = 7
	maximum = 43
Network latency average = 21.0258
	minimum = 7
	maximum = 43
Slowest packet = 21426
Flit latency average = 21.0258
	minimum = 7
	maximum = 43
Slowest flit = 21426
Fragmentation average = 0
	minimum = 0
	maximum = 0
Injected packet rate average = 0.04875
	minimum = 0.028 (at node 5)
	maximum = 0.062 (at node 4)
Accepted packet rate average = 0.0485
	minimum = 0.036 (at node 0)
	maximum = 0.064 (at node 4)
Injected flit rate average = 0.04875
	minimum = 0.028 (at node 5)
	maximum = 0.062 (at node 4)
Accepted flit rate average= 0.0485
	minimum = 0.036 (at node 0)
	maximum = 0.064 (at node 4)
Injected packet length average = 1
Accepted packet length average = 1
Total in-flight flits = 12 (0 measured)
latency change    = 0.0418835
throughput change = 0.0322165
Warmed up ...Time used is 1500 cycles
Class 0:
Packet latency average = 19.5333
	minimum = 7
	maximum = 42
Network latency average = 19.5333
	minimum = 7
	maximum = 42
Slowest packet = 21831
Flit latency average = 19.5149
	minimum = 7
	maximum = 42
Slowest flit = 21831
Fragmentation average = 0
	minimum = 0
	maximum = 0
Injected packet rate average = 0.05025
	minimum = 0.036 (at node 7)
	maximum = 0.064 (at node 5)
Accepted packet rate average = 0.05025
	minimum = 0.036 (at node 15)
	maximum = 0.062 (at node 3)
Injected flit rate average = 0.05025
	minimum = 0.036 (at node 7)
	maximum = 0.064 (at node 5)
Accepted flit rate average= 0.05025
	minimum = 0.036 (at node 15)
	maximum = 0.062 (at node 3)
Injected packet length average = 1
Accepted packet length average = 1
Total in-flight flits = 12 (12 measured)
latency change    = 0.0764048
throughput change = 0.0348259
Class 0:
Packet latency average = 19.8245
	minimum = 7
	maximum = 44
Network latency average = 19.8245
	minimum = 7
	maximum = 44
Slowest packet = 22140
Flit latency average = 19.8107
	minimum = 7
	maximum = 44
Slowest flit = 22140
Fragmentation average = 0
	minimum = 0
	maximum = 0
Injected packet rate average = 0.0493125
	minimum = 0.038 (at node 7)
	maximum = 0.059 (at node 12)
Accepted packet rate average = 0.0491875
	minimum = 0.038 (at node 5)
	maximum = 0.058 (at node 3)
Injected flit rate average = 0.0493125
	minimum = 0.038 (at node 7)
	maximum = 0.059 (at node 12)
Accepted flit rate average= 0.0491875
	minimum = 0.038 (at node 5)
	maximum = 0.058 (at node 3)
Injected packet length average = 1
Accepted packet length average = 1
Total in-flight flits = 14 (14 measured)
latency change    = 0.014688
throughput change = 0.021601
Class 0:
Packet latency average = 19.6437
	minimum = 7
	maximum = 44
Network latency average = 19.6437
	minimum = 7
	maximum = 44
Slowest packet = 22140
Flit latency average = 19.6364
	minimum = 7
	maximum = 44
Slowest flit = 22140
Fragmentation average = 0
	minimum = 0
	maximum = 0
Injected packet rate average = 0.050375
	minimum = 0.0406667 (at node 2)
	maximum = 0.0566667 (at node 4)
Accepted packet rate average = 0.0500833
	minimum = 0.0406667 (at node 12)
	maximum = 0.0586667 (at node 9)
Injected flit rate average = 0.050375
	minimum = 0.0406667 (at node 2)
	maximum = 0.0566667 (at node 4)
Accepted flit rate average= 0.0500833
	minimum = 0.0406667 (at node 12)
	maximum = 0.0586667 (at node 9)
Injected packet length average = 1
Accepted packet length average = 1
Total in-flight flits = 19 (19 measured)
latency change    = 0.00920492
throughput change = 0.0178869
Class 0:
Packet latency average = 19.6485
	minimum = 7
	maximum = 48
Network latency average = 19.6485
	minimum = 7
	maximum = 48
Slowest packet = 23279
Flit latency average = 19.6429
	minimum = 7
	maximum = 48
Slowest flit = 23279
Fragmentation average = 0
	minimum = 0
	maximum = 0
Injected packet rate average = 0.0493125
	minimum = 0.037 (at node 7)
	maximum = 0.0565 (at node 9)
Accepted packet rate average = 0.0490937
	minimum = 0.038 (at node 12)
	maximum = 0.0595 (at node 9)
Injected flit rate average = 0.0493125
	minimum = 0.037 (at node 7)
	maximum = 0.0565 (at node 9)
Accepted flit rate average= 0.0490937
	minimum = 0.038 (at node 12)
	maximum = 0.0595 (at node 9)
Injected packet length average = 1
Accepted packet length average = 1
Total in-flight flits = 19 (19 measured)
latency change    = 0.000244046
throughput change = 0.020157
Draining all recorded packets ...
Draining remaining packets ...
Time taken is 3559 cycles
Class 0:
Packet latency average = 20.1501
	minimum = 7
	maximum = 52
Network latency average = 20.1501
	minimum = 7
	maximum = 52
Slowest packet = 23709
Flit latency average = 20.1501
	minimum = 7
	maximum = 52
Slowest flit = 23709
Fragmentation average = 0
	minimum = 0
	maximum = 0
Injected packet rate average = 0.050375
	minimum = 0.04 (at node 9)
	maximum = 0.064 (at node 2)
Accepted packet rate average = 0.049125
	minimum = 0.034 (at node 0)
	maximum = 0.058 (at node 2)
Injected flit rate average = 0.050375
	minimum = 0.04 (at node 9)
	maximum = 0.064 (at node 2)
Accepted flit rate average= 0.049125
	minimum = 0.034 (at node 0)
	maximum = 0.058 (at node 2)
Injected packet length average = 1
Accepted packet length average = 1
Total in-flight flits = 10 (0 measured)
latency change    = 1
throughput change = 1
Class 0:
Packet latency average = 20.1605
	minimum = 7
	maximum = 52
Network latency average = 20.1605
	minimum = 7
	maximum = 52
Slowest packet = 23709
Flit latency average = 20.1605
	minimum = 7
	maximum = 52
Slowest flit = 23709
Fragmentation average = 0
	minimum = 0
	maximum = 0
Injected packet rate average = 0.0483125
	minimum = 0.035 (at node 9)
	maximum = 0.058 (at node 14)
Accepted packet rate average = 0.0475
	minimum = 0.032 (at node 15)
	maximum = 0.059 (at node 1)
Injected flit rate average = 0.0483125
	minimum = 0.035 (at node 9)
	maximum = 0.058 (at node 14)
Accepted flit rate average= 0.0475
	minimum = 0.032 (at node 15)
	maximum = 0.059 (at node 1)
Injected packet length average = 1
Accepted packet length average = 1
Total in-flight flits = 13 (0 measured)
latency change    = 0.000515814
throughput change = 0.0342105
Class 0:
Packet latency average = 21.1493
	minimum = 7
	maximum = 46
Network latency average = 21.1493
	minimum = 7
	maximum = 46
Slowest packet = 24440
Flit latency average = 21.1493
	minimum = 7
	maximum = 46
Slowest flit = 24440
Fragmentation average = 0
	minimum = 0
	maximum = 0
Injected packet rate average = 0.050625
	minimum = 0.038 (at node 1)
	maximum = 0.066 (at node 3)
Accepted packet rate average = 0.05025
	minimum = 0.03 (at node 6)
	maximum = 0.068 (at node 0)
Injected flit rate average = 0.050625
	minimum = 0.038 (at node 1)
	maximum = 0.066 (at node 3)
Accepted flit rate average= 0.05025
	minimum = 0.03 (at node 6)
	maximum = 0.068 (at node 0)
Injected packet length average = 1
Accepted packet length average = 1
Total in-flight flits = 16 (0 measured)
latency change    = 0.04675
throughput change = 0.0547264
Warmed up ...Time used is 1500 cycles
Class 0:
Packet latency average = 19.7412
	minimum = 7
	maximum = 38
Network latency average = 19.7412
	minimum = 7
	maximum = 38
Slowest packet = 24702
Flit latency average = 19.8986
	minimum = 7
	maximum = 38
Slowest flit = 24702
Fragmentation average = 0
	minimum = 0
	maximum = 0
Injected packet rate average = 0.051625
	minimum = 0.032 (at node 10)
	maximum = 0.074 (at node 14)
Accepted packet rate average = 0.05175
	minimum = 0.036 (at node 5)
	maximum = 0.074 (at node 10)
Injected flit rate average = 0.051625
	minimum = 0.032 (at node 10)
	maximum = 0.074 (at node 14)
Accepted flit rate average= 0.05175
	minimum = 0.036 (at node 5)
	maximum = 0.074 (at node 10)
Injected packet length average = 1
Accepted packet length average = 1
Total in-flight flits = 15 (15 measured)
latency change    = 0.0713253
throughput change = 0.0289855
Class 0:
Packet latency average = 19.6341
	minimum = 7
	maximum = 39
Network latency average = 19.6341
	minimum = 7
	maximum = 39
Slowest packet = 25103
Flit latency average = 19.7162
	minimum = 7
	maximum = 39
Slowest flit = 25103
Fragmentation average = 0
	minimum = 0
	maximum = 0
Injected packet rate average = 0.050875
	minimum = 0.045 (at node 3)
	maximum = 0.059 (at node 14)
Accepted packet rate average = 0.050875
	minimum = 0.039 (at node 4)
	maximum = 0.067 (at node 10)
Injected flit rate average = 0.050875
	minimum = 0.045 (at node 3)
	maximum = 0.059 (at node 14)
Accepted flit rate average= 0.050875
	minimum = 0.039 (at node 4)
	maximum = 0.067 (at node 10)
Injected packet length average = 1
Accepted packet length average = 1
Total in-flight flits = 16 (16 measured)
latency change    = 0.00545586
throughput change = 0.017199
Class 0:
Packet latency average = 19.7993
	minimum = 7
	maximum = 48
Network latency average = 19.7993
	minimum = 7
	maximum = 48
Slowest packet = 25629
Flit latency average = 19.8515
	minimum = 7
	maximum = 48
Slowest flit = 25629
Fragmentation average = 0
	minimum = 0
	maximum = 0
Injected packet rate average = 0.0512083
	minimum = 0.0446667 (at node 8)
	maximum = 0.0606667 (at node 14)
Accepted packet rate average = 0.0513333
	minimum = 0.0413333 (at node 7)
	maximum = 0.0633333 (at node 10)
Injected flit rate average = 0.0512083
	minimum = 0.0446667 (at node 8)
	maximum = 0.0606667 (at node 14)
Accepted flit rate average= 0.0513333
	minimum = 0.0413333 (at node 7)
	maximum = 0.0633333 (at node 10)
Injected packet length average = 1
Accepted packet length average = 1
Total in-flight flits = 13 (13 measured)
latency change    = 0.00834659
throughput change = 0.00892857
Class 0:
Packet latency average = 19.7235
	minimum = 7
	maximum = 48
Network latency average = 19.7235
	minimum = 7
	maximum = 48
Slowest packet = 25629
Flit latency average = 19.7634
	minimum = 7
	maximum = 48
Slowest flit = 25629
Fragmentation average = 0
	minimum = 0
	maximum = 0
Injected packet rate average = 0.051125
	minimum = 0.044 (at node 12)
	maximum = 0.059 (at node 14)
Accepted packet rate average = 0.05125
	minimum = 0.0425 (at node 7)
	maximum = 0.0605 (at node 3)
Injected flit rate average = 0.051125
	minimum = 0.044 (at node 12)
	maximum = 0.059 (at node 14)
Accepted flit rate average= 0.05125
	minimum = 0.0425 (at node 7)
	maximum = 0.0605 (at node 3)
Injected packet length average = 1
Accepted packet length average = 1
Total in-flight flits = 12 (12 measured)
latency change    = 0.00384414
throughput change = 0.00162602
Draining all recorded packets ...
Draining remaining packets ...
Time taken is 3557 cycles
Class 0:
Packet latency average = 20.8526
	minimum = 7
	maximum = 43
Network latency average = 20.8526
	minimum = 7
	maximum = 43
Slowest packet = 26386
Flit latency average = 20.8526
	minimum = 7
	maximum = 43
Slowest flit = 26386
Fragmentation average = 0
	minimum = 0
	maximum = 0
Injected packet rate average = 0.05075
	minimum = 0.03 (at node 9)
	maximum = 0.07 (at node 14)
Accepted packet rate average = 0.0475
	minimum = 0.036 (at node 1)
	maximum = 0.064 (at node 6)
Injected flit rate average = 0.05075
	minimum = 0.03 (at node 9)
	maximum = 0.07 (at node 14)
Accepted flit rate average= 0.0475
	minimum = 0.036 (at node 1)
	maximum = 0.064 (at node 6)
Injected packet length average = 1
Accepted packet length average = 1
Total in-flight flits = 26 (0 measured)
latency change    = 1
throughput change = 1
Class 0:
Packet latency average = 20.3959
	minimum = 7
	maximum = 44
Network latency average = 20.3959
	minimum = 7
	maximum = 44
Slowest packet = 26616
Flit latency average = 20.3959
	minimum = 7
	maximum = 44
Slowest flit = 26616
Fragmentation average = 0
	minimum = 0
	maximum = 0
Injected packet rate average = 0.0495625
	minimum = 0.035 (at node 4)
	maximum = 0.063 (at node 14)
Accepted packet rate average = 0.0489375
	minimum = 0.035 (at node 14)
	maximum = 0.064 (at node 11)
Injected flit rate average = 0.0495625
	minimum = 0.035 (at node 4)
	maximum = 0.063 (at node 14)
Accepted flit rate average= 0.0489375
	minimum = 0.035 (at node 14)
	maximum = 0.064 (at node 11)
Injected packet length average = 1
Accepted packet length average = 1
Total in-flight flits = 10 (0 measured)
latency change    = 0.0223926
throughput change = 0.0293742
Class 0:
Packet latency average = 20.2213
	minimum = 7
	maximum = 46
Network latency average = 20.2213
	minimum = 7
	maximum = 46
Slowest packet = 27163
Flit latency average = 20.2213
	minimum = 7
	maximum = 46
Slowest flit = 27163
Fragmentation average = 0
	minimum = 0
	maximum = 0
Injected packet rate average = 0.04625
	minimum = 0.038 (at node 0)
	maximum = 0.064 (at node 12)
Accepted packet rate average = 0.04575
	minimum = 0.032 (at node 13)
	maximum = 0.058 (at node 4)
Injected flit rate average = 0.04625
	minimum = 0.038 (at node 0)
	maximum = 0.064 (at node 12)
Accepted flit rate average= 0.04575
	minimum = 0.032 (at node 13)
	maximum = 0.058 (at node 4)
Injected packet length average = 1
Accepted packet length average = 1
Total in-flight flits = 14 (0 measured)
latency change    = 0.00863454
throughput change = 0.0696721
Warmed up ...Time used is 1500 cycles
Class 0:
Packet latency average = 20.0738
	minimum = 7
	maximum = 42
Network latency average = 20.0738
	minimum = 7
	maximum = 42
Slowest packet = 27394
Flit latency average = 20.1597
	minimum = 7
	maximum = 42
Slowest flit = 27394
Fragmentation average = 0
	minimum = 0
	maximum = 0
Injected packet rate average = 0.05025
	minimum = 0.038 (at node 5)
	maximum = 0.068 (at node 9)
Accepted packet rate average = 0.050875
	minimum = 0.03 (at node 4)
	maximum = 0.07 (at node 7)
Injected flit rate average = 0.05025
	minimum = 0.038 (at node 5)
	maximum = 0.068 (at node 9)
Accepted flit rate average= 0.050875
	minimum = 0.03 (at node 4)
	maximum = 0.07 (at node 7)
Injected packet length average = 1
Accepted packet length average = 1
Total in-flight flits = 9 (9 measured)
latency change    = 0.00734889
throughput change = 0.100737
Class 0:
Packet latency average = 20.045
	minimum = 7
	maximum = 43
Network latency average = 20.045
	minimum = 7
	maximum = 43
Slowest packet = 28128
Flit latency average = 20.0872
	minimum = 7
	maximum = 43
Slowest flit = 28128
Fragmentation average = 0
	minimum = 0
	maximum = 0
Injected packet rate average = 0.052375
	minimum = 0.042 (at node 3)
	maximum = 0.063 (at node 9)
Accepted packet rate average = 0.0523125
	minimum = 0.035 (at node 1)
	maximum = 0.061 (at node 15)
Injected flit rate average = 0.052375
	minimum = 0.042 (at node 3)
	maximum = 0.063 (at node 9)
Accepted flit rate average= 0.0523125
	minimum = 0.035 (at node 1)
	maximum = 0.061 (at node 15)
Injected packet length average = 1
Accepted packet length average = 1
Total in-flight flits = 15 (15 measured)
latency change    = 0.00143846
throughput change = 0.0274791
Class 0:
Packet latency average = 19.9992
	minimum = 7
	maximum = 43
Network latency average = 19.9992
	minimum = 7
	maximum = 43
Slowest packet = 28128
Flit latency average = 20.0282
	minimum = 7
	maximum = 43
Slowest flit = 28128
Fragmentation average = 0
	minimum = 0
	maximum = 0
Injected packet rate average = 0.0518333
	minimum = 0.044 (at node 3)
	maximum = 0.0673333 (at node 9)
Accepted packet rate average = 0.0517083
	minimum = 0.0406667 (at node 1)
	maximum = 0.064 (at node 14)
Injected flit rate average = 0.0518333
	minimum = 0.044 (at node 3)
	maximum = 0.0673333 (at node 9)
Accepted flit rate average= 0.0517083
	minimum = 0.0406667 (at node 1)
	maximum = 0.064 (at node 14)
Injected packet length average = 1
Accepted packet length average = 1
Total in-flight flits = 17 (17 measured)
latency change    = 0.00228872
throughput change = 0.0116841
Class 0:
Packet latency average = 19.9169
	minimum = 7
	maximum = 43
Network latency average = 19.9169
	minimum = 7
	maximum = 43
Slowest packet = 28128
Flit latency average = 19.9397
	minimum = 7
	maximum = 43
Slowest flit = 28128
Fragmentation average = 0
	minimum = 0
	maximum = 0
Injected packet rate average = 0.0509063
	minimum = 0.046 (at node 2)
	maximum = 0.0625 (at node 9)
Accepted packet rate average = 0.0508125
	minimum = 0.0425 (at node 1)
	maximum = 0.0585 (at node 13)
Injected flit rate average = 0.0509063
	minimum = 0.046 (at node 2)
	maximum = 0.0625 (at node 9)
Accepted flit rate average= 0.0508125
	minimum = 0.0425 (at node 1)
	maximum = 0.0585 (at node 13)
Injected packet length average = 1
Accepted packet length average = 1
Total in-flight flits = 17 (17 measured)
latency change    = 0.00413275
throughput change = 0.0176302
Draining all recorded packets ...
Draining remaining packets ...
Time taken is 3557 cycles
Class 0:
Packet latency average = 19.7147
	minimum = 7
	maximum = 40
Network latency average = 19.7147
	minimum = 7
	maximum = 40
Slowest packet = 29308
Flit latency average = 19.7147
	minimum = 7
	maximum = 40
Slowest flit = 29308
Fragmentation average = 0
	minimum = 0
	maximum = 0
Injected packet rate average = 0.047
	minimum = 0.03 (at node 1)
	maximum = 0.07 (at node 4)
Accepted packet rate average = 0.045125
	minimum = 0.032 (at node 1)
	maximum = 0.064 (at node 10)
Injected flit rate average = 0.047
	minimum = 0.03 (at node 1)
	maximum = 0.07 (at node 4)
Accepted flit rate average= 0.045125
	minimum = 0.032 (at node 1)
	maximum = 0.064 (at node 10)
Injected packet length average = 1
Accepted packet length average = 1
Total in-flight flits = 15 (0 measured)
latency change    = 1
throughput change = 1
Class 0:
Packet latency average = 20.0978
	minimum = 7
	maximum = 46
Network latency average = 20.0978
	minimum = 7
	maximum = 46
Slowest packet = 29571
Flit latency average = 20.0978
	minimum = 7
	maximum = 46
Slowest flit = 29571
Fragmentation average = 0
	minimum = 0
	maximum = 0
Injected packet rate average = 0.04925
	minimum = 0.034 (at node 10)
	maximum = 0.07 (at node 4)
Accepted packet rate average = 0.0485625
	minimum = 0.039 (at node 1)
	maximum = 0.062 (at node 10)
Injected flit rate average = 0.04925
	minimum = 0.034 (at node 10)
	maximum = 0.07 (at node 4)
Accepted flit rate average= 0.0485625
	minimum = 0.039 (at node 1)
	maximum = 0.062 (at node 10)
Injected packet length average = 1
Accepted packet length average = 1
Total in-flight flits = 11 (0 measured)
latency change    = 0.0190633
throughput change = 0.0707851
Class 0:
Packet latency average = 19.4228
	minimum = 7
	maximum = 41
Network latency average = 19.4228
	minimum = 7
	maximum = 41
Slowest packet = 29816
Flit latency average = 19.4228
	minimum = 7
	maximum = 41
Slowest flit = 29816
Fragmentation average = 0
	minimum = 0
	maximum = 0
Injected packet rate average = 0.047125
	minimum = 0.028 (at node 2)
	maximum = 0.064 (at node 12)
Accepted packet rate average = 0.046125
	minimum = 0.034 (at node 12)
	maximum = 0.058 (at node 15)
Injected flit rate average = 0.047125
	minimum = 0.028 (at node 2)
	maximum = 0.064 (at node 12)
Accepted flit rate average= 0.046125
	minimum = 0.034 (at node 12)
	maximum = 0.058 (at node 15)
Injected packet length average = 1
Accepted packet length average = 1
Total in-flight flits = 19 (0 measured)
latency change    = 0.0347555
throughput change = 0.0528455
Warmed up ...Time used is 1500 cycles
Class 0:
Packet latency average = 20.0719
	minimum = 7
	maximum = 44
Network latency average = 20.0719
	minimum = 7
	maximum = 44
Slowest packet = 30422
Flit latency average = 20.1491
	minimum = 7
	maximum = 44
Slowest flit = 30422
Fragmentation average = 0
	minimum = 0
	maximum = 0
Injected packet rate average = 0.054
	minimum = 0.034 (at node 6)
	maximum = 0.07 (at node 11)
Accepted packet rate average = 0.0545
	minimum = 0.036 (at node 0)
	maximum = 0.076 (at node 14)
Injected flit rate average = 0.054
	minimum = 0.034 (at node 6)
	maximum = 0.07 (at node 11)
Accepted flit rate average= 0.0545
	minimum = 0.036 (at node 0)
	maximum = 0.076 (at node 14)
Injected packet length average = 1
Accepted packet length average = 1
Total in-flight flits = 15 (15 measured)
latency change    = 0.0323426
throughput change = 0.15367
Class 0:
Packet latency average = 20
	minimum = 7
	maximum = 44
Network latency average = 20
	minimum = 7
	maximum = 44
Slowest packet = 30422
Flit latency average = 20.0409
	minimum = 7
	maximum = 44
Slowest flit = 30422
Fragmentation average = 0
	minimum = 0
	maximum = 0
Injected packet rate average = 0.052875
	minimum = 0.043 (at node 6)
	maximum = 0.061 (at node 11)
Accepted packet rate average = 0.0534375
	minimum = 0.047 (at node 1)
	maximum = 0.071 (at node 14)
Injected flit rate average = 0.052875
	minimum = 0.043 (at node 6)
	maximum = 0.061 (at node 11)
Accepted flit rate average= 0.0534375
	minimum = 0.047 (at node 1)
	maximum = 0.071 (at node 14)
Injected packet length average = 1
Accepted packet length average = 1
Total in-flight flits = 10 (10 measured)
latency change    = 0.00359712
throughput change = 0.019883
Class 0:
Packet latency average = 19.6286
	minimum = 7
	maximum = 53
Network latency average = 19.6286
	minimum = 7
	maximum = 53
Slowest packet = 31059
Flit latency average = 19.6624
	minimum = 7
	maximum = 53
Slowest flit = 31059
Fragmentation average = 0
	minimum = 0
	maximum = 0
Injected packet rate average = 0.0517917
	minimum = 0.044 (at node 15)
	maximum = 0.0606667 (at node 11)
Accepted packet rate average = 0.0518333
	minimum = 0.0466667 (at node 0)
	maximum = 0.062 (at node 14)
Injected flit rate average = 0.0517917
	minimum = 0.044 (at node 15)
	maximum = 0.0606667 (at node 11)
Accepted flit rate average= 0.0518333
	minimum = 0.0466667 (at node 0)
	maximum = 0.062 (at node 14)
Injected packet length average = 1
Accepted packet length average = 1
Total in-flight flits = 18 (18 measured)
latency change    = 0.0189229
throughput change = 0.0309486
Class 0:
Packet latency average = 19.5698
	minimum = 7
	maximum = 53
Network latency average = 19.5698
	minimum = 7
	maximum = 53
Slowest packet = 31059
Flit latency average = 19.5963
	minimum = 7
	maximum = 53
Slowest flit = 31059
Fragmentation average = 0
	minimum = 0
	maximum = 0
Injected packet rate average = 0.0508438
	minimum = 0.0455 (at node 2)
	maximum = 0.0615 (at node 11)
Accepted packet rate average = 0.0509375
	minimum = 0.045 (at node 7)
	maximum = 0.061 (at node 14)
Injected flit rate average = 0.0508438
	minimum = 0.0455 (at node 2)
	maximum = 0.0615 (at node 11)
Accepted flit rate average= 0.0509375
	minimum = 0.045 (at node 7)
	maximum = 0.061 (at node 14)
Injected packet length average = 1
Accepted packet length average = 1
Total in-flight flits = 16 (16 measured)
latency change    = 0.00300151
throughput change = 0.0175869
Draining all recorded packets ...
Draining remaining packets ...
Time taken is 3567 cycles
Class 0:
Packet latency average = 19.6354
	minimum = 7
	maximum = 41
Network latency average = 19.6354
	minimum = 7
	maximum = 41
Slowest packet = 31856
Flit latency average = 19.6354
	minimum = 7
	maximum = 41
Slowest flit = 31856
Fragmentation average = 0
	minimum = 0
	maximum = 0
Injected packet rate average = 0.04725
	minimum = 0.034 (at node 11)
	maximum = 0.078 (at node 14)
Accepted packet rate average = 0.04525
	minimum = 0.024 (at node 0)
	maximum = 0.064 (at node 11)
Injected flit rate average = 0.04725
	minimum = 0.034 (at node 11)
	maximum = 0.078 (at node 14)
Accepted flit rate average= 0.04525
	minimum = 0.024 (at node 0)
	maximum = 0.064 (at node 11)
Injected packet length average = 1
Accepted packet length average = 1
Total in-flight flits = 16 (0 measured)
latency change    = 1
throughput change = 1
Class 0:
Packet latency average = 20.2626
	minimum = 7
	maximum = 50
Network latency average = 20.2626
	minimum = 7
	maximum = 50
Slowest packet = 32343
Flit latency average = 20.2626
	minimum = 7
	maximum = 50
Slowest flit = 32343
Fragmentation average = 0
	minimum = 0
	maximum = 0
Injected packet rate average = 0.050625
	minimum = 0.038 (at node 11)
	maximum = 0.063 (at node 2)
Accepted packet rate average = 0.0495
	minimum = 0.036 (at node 7)
	maximum = 0.065 (at node 12)
Injected flit rate average = 0.050625
	minimum = 0.038 (at node 11)
	maximum = 0.063 (at node 2)
Accepted flit rate average= 0.0495
	minimum = 0.036 (at node 7)
	maximum = 0.065 (at node 12)
Injected packet length average = 1
Accepted packet length average = 1
Total in-flight flits = 18 (0 measured)
latency change    = 0.0309569
throughput change = 0.0858586
Class 0:
Packet latency average = 19.6649
	minimum = 7
	maximum = 42
Network latency average = 19.6649
	minimum = 7
	maximum = 42
Slowest packet = 32748
Flit latency average = 19.6649
	minimum = 7
	maximum = 42
Slowest flit = 32748
Fragmentation average = 0
	minimum = 0
	maximum = 0
Injected packet rate average = 0.046125
	minimum = 0.018 (at node 15)
	maximum = 0.066 (at node 0)
Accepted packet rate average = 0.046625
	minimum = 0.026 (at node 11)
	maximum = 0.066 (at node 2)
Injected flit rate average = 0.046125
	minimum = 0.018 (at node 15)
	maximum = 0.066 (at node 0)
Accepted flit rate average= 0.046625
	minimum = 0.026 (at node 11)
	maximum = 0.066 (at node 2)
Injected packet length average = 1
Accepted packet length average = 1
Total in-flight flits = 14 (0 measured)
latency change    = 0.0303967
throughput change = 0.0616622
Warmed up ...Time used is 1500 cycles
Class 0:
Packet latency average = 20.5272
	minimum = 7
	maximum = 48
Network latency average = 20.5272
	minimum = 7
	maximum = 48
Slowest packet = 33372
Flit latency average = 20.6603
	minimum = 7
	maximum = 48
Slowest flit = 33372
Fragmentation average = 0
	minimum = 0
	maximum = 0
Injected packet rate average = 0.052125
	minimum = 0.036 (at node 2)
	maximum = 0.078 (at node 12)
Accepted packet rate average = 0.05225
	minimum = 0.038 (at node 1)
	maximum = 0.068 (at node 10)
Injected flit rate average = 0.052125
	minimum = 0.036 (at node 2)
	maximum = 0.078 (at node 12)
Accepted flit rate average= 0.05225
	minimum = 0.038 (at node 1)
	maximum = 0.068 (at node 10)
Injected packet length average = 1
Accepted packet length average = 1
Total in-flight flits = 13 (13 measured)
latency change    = 0.04201
throughput change = 0.107656
Class 0:
Packet latency average = 19.8547
	minimum = 7
	maximum = 48
Network latency average = 19.8547
	minimum = 7
	maximum = 48
Slowest packet = 33372
Flit latency average = 19.9341
	minimum = 7
	maximum = 48
Slowest flit = 33372
Fragmentation average = 0
	minimum = 0
	maximum = 0
Injected packet rate average = 0.0515625
	minimum = 0.04 (at node 1)
	maximum = 0.075 (at node 13)
Accepted packet rate average = 0.0511875
	minimum = 0.04 (at node 8)
	maximum = 0.064 (at node 10)
Injected flit rate average = 0.0515625
	minimum = 0.04 (at node 1)
	maximum = 0.075 (at node 13)
Accepted flit rate average= 0.0511875
	minimum = 0.04 (at node 8)
	maximum = 0.064 (at node 10)
Injected packet length average = 1
Accepted packet length average = 1
Total in-flight flits = 20 (20 measured)
latency change    = 0.0338746
throughput change = 0.020757
Class 0:
Packet latency average = 19.9453
	minimum = 7
	maximum = 48
Network latency average = 19.9453
	minimum = 7
	maximum = 48
Slowest packet = 33372
Flit latency average = 19.9968
	minimum = 7
	maximum = 48
Slowest flit = 33372
Fragmentation average = 0
	minimum = 0
	maximum = 0
Injected packet rate average = 0.0517083
	minimum = 0.0426667 (at node 1)
	maximum = 0.07 (at node 13)
Accepted packet rate average = 0.051625
	minimum = 0.0426667 (at node 8)
	maximum = 0.0653333 (at node 10)
Injected flit rate average = 0.0517083
	minimum = 0.0426667 (at node 1)
	maximum = 0.07 (at node 13)
Accepted flit rate average= 0.051625
	minimum = 0.0426667 (at node 8)
	maximum = 0.0653333 (at node 10)
Injected packet length average = 1
Accepted packet length average = 1
Total in-flight flits = 16 (16 measured)
latency change    = 0.00454482
throughput change = 0.00847458
Class 0:
Packet latency average = 19.9275
	minimum = 7
	maximum = 48
Network latency average = 19.9275
	minimum = 7
	maximum = 48
Slowest packet = 33372
Flit latency average = 19.9662
	minimum = 7
	maximum = 48
Slowest flit = 33372
Fragmentation average = 0
	minimum = 0
	maximum = 0
Injected packet rate average = 0.0520313
	minimum = 0.0435 (at node 1)
	maximum = 0.062 (at node 13)
Accepted packet rate average = 0.0517188
	minimum = 0.041 (at node 8)
	maximum = 0.0615 (at node 11)
Injected flit rate average = 0.0520313
	minimum = 0.0435 (at node 1)
	maximum = 0.062 (at node 13)
Accepted flit rate average= 0.0517188
	minimum = 0.041 (at node 8)
	maximum = 0.0615 (at node 11)
Injected packet length average = 1
Accepted packet length average = 1
Total in-flight flits = 24 (24 measured)
latency change    = 0.000894387
throughput change = 0.00181269
Draining all recorded packets ...
Draining remaining packets ...
Time taken is 3569 cycles
Class 0:
Packet latency average = 19.2287
	minimum = 7
	maximum = 46
Network latency average = 19.2287
	minimum = 7
	maximum = 46
Slowest packet = 34902
Flit latency average = 19.2287
	minimum = 7
	maximum = 46
Slowest flit = 34902
Fragmentation average = 0
	minimum = 0
	maximum = 0
Injected packet rate average = 0.048625
	minimum = 0.032 (at node 7)
	maximum = 0.062 (at node 14)
Accepted packet rate average = 0.047
	minimum = 0.022 (at node 13)
	maximum = 0.066 (at node 2)
Injected flit rate average = 0.048625
	minimum = 0.032 (at node 7)
	maximum = 0.062 (at node 14)
Accepted flit rate average= 0.047
	minimum = 0.022 (at node 13)
	maximum = 0.066 (at node 2)
Injected packet length average = 1
Accepted packet length average = 1
Total in-flight flits = 13 (0 measured)
latency change    = 1
throughput change = 1
Class 0:
Packet latency average = 19.7119
	minimum = 7
	maximum = 46
Network latency average = 19.7119
	minimum = 7
	maximum = 46
Slowest packet = 34902
Flit latency average = 19.7119
	minimum = 7
	maximum = 46
Slowest flit = 34902
Fragmentation average = 0
	minimum = 0
	maximum = 0
Injected packet rate average = 0.049125
	minimum = 0.037 (at node 7)
	maximum = 0.061 (at node 14)
Accepted packet rate average = 0.048375
	minimum = 0.027 (at node 13)
	maximum = 0.059 (at node 6)
Injected flit rate average = 0.049125
	minimum = 0.037 (at node 7)
	maximum = 0.061 (at node 14)
Accepted flit rate average= 0.048375
	minimum = 0.027 (at node 13)
	maximum = 0.059 (at node 6)
Injected packet length average = 1
Accepted packet length average = 1
Total in-flight flits = 12 (0 measured)
latency change    = 0.0245112
throughput change = 0.0284238
Class 0:
Packet latency average = 19.5725
	minimum = 7
	maximum = 44
Network latency average = 19.5725
	minimum = 7
	maximum = 44
Slowest packet = 35796
Flit latency average = 19.5725
	minimum = 7
	maximum = 44
Slowest flit = 35796
Fragmentation average = 0
	minimum = 0
	maximum = 0
Injected packet rate average = 0.052625
	minimum = 0.036 (at node 0)
	maximum = 0.066 (at node 8)
Accepted packet rate average = 0.05175
	minimum = 0.038 (at node 2)
	maximum = 0.068 (at node 4)
Injected flit rate average = 0.052625
	minimum = 0.036 (at node 0)
	maximum = 0.066 (at node 8)
Accepted flit rate average= 0.05175
	minimum = 0.038 (at node 2)
	maximum = 0.068 (at node 4)
Injected packet length average = 1
Accepted packet length average = 1
Total in-flight flits = 19 (0 measured)
latency change    = 0.0071234
throughput change = 0.0652174
Warmed up ...Time used is 1500 cycles
Class 0:
Packet latency average = 19.584
	minimum = 7
	maximum = 41
Network latency average = 19.584
	minimum = 7
	maximum = 41
Slowest packet = 36122
Flit latency average = 19.7094
	minimum = 7
	maximum = 41
Slowest flit = 36122
Fragmentation average = 0
	minimum = 0
	maximum = 0
Injected packet rate average = 0.0475
	minimum = 0.024 (at node 6)
	maximum = 0.06 (at node 4)
Accepted packet rate average = 0.04775
	minimum = 0.032 (at node 1)
	maximum = 0.062 (at node 3)
Injected flit rate average = 0.0475
	minimum = 0.024 (at node 6)
	maximum = 0.06 (at node 4)
Accepted flit rate average= 0.04775
	minimum = 0.032 (at node 1)
	maximum = 0.062 (at node 3)
Injected packet length average = 1
Accepted packet length average = 1
Total in-flight flits = 17 (17 measured)
latency change    = 0.000590189
throughput change = 0.0837696
Class 0:
Packet latency average = 19.6524
	minimum = 7
	maximum = 41
Network latency average = 19.6524
	minimum = 7
	maximum = 41
Slowest packet = 36122
Flit latency average = 19.7096
	minimum = 7
	maximum = 41
Slowest flit = 36122
Fragmentation average = 0
	minimum = 0
	maximum = 0
Injected packet rate average = 0.0506875
	minimum = 0.034 (at node 6)
	maximum = 0.063 (at node 15)
Accepted packet rate average = 0.051
	minimum = 0.041 (at node 1)
	maximum = 0.066 (at node 3)
Injected flit rate average = 0.0506875
	minimum = 0.034 (at node 6)
	maximum = 0.063 (at node 15)
Accepted flit rate average= 0.051
	minimum = 0.041 (at node 1)
	maximum = 0.066 (at node 3)
Injected packet length average = 1
Accepted packet length average = 1
Total in-flight flits = 14 (14 measured)
latency change    = 0.00348174
throughput change = 0.0637255
Class 0:
Packet latency average = 19.8568
	minimum = 7
	maximum = 43
Network latency average = 19.8568
	minimum = 7
	maximum = 43
Slowest packet = 36846
Flit latency average = 19.891
	minimum = 7
	maximum = 43
Slowest flit = 36846
Fragmentation average = 0
	minimum = 0
	maximum = 0
Injected packet rate average = 0.0519167
	minimum = 0.0393333 (at node 6)
	maximum = 0.064 (at node 7)
Accepted packet rate average = 0.052
	minimum = 0.0386667 (at node 1)
	maximum = 0.0613333 (at node 3)
Injected flit rate average = 0.0519167
	minimum = 0.0393333 (at node 6)
	maximum = 0.064 (at node 7)
Accepted flit rate average= 0.052
	minimum = 0.0386667 (at node 1)
	maximum = 0.0613333 (at node 3)
Injected packet length average = 1
Accepted packet length average = 1
Total in-flight flits = 17 (17 measured)
latency change    = 0.0102911
throughput change = 0.0192308
Class 0:
Packet latency average = 19.7553
	minimum = 7
	maximum = 43
Network latency average = 19.7553
	minimum = 7
[...]
	minimum = 7
	maximum = 48
Slowest flit = 127602
Fragmentation average = 0
	minimum = 0
	maximum = 0
Injected packet rate average = 0.05
	minimum = 0.036 (at node 5)
	maximum = 0.064 (at node 8)
Accepted packet rate average = 0.048375
	minimum = 0.034 (at node 3)
	maximum = 0.066 (at node 0)
Injected flit rate average = 0.05
	minimum = 0.036 (at node 5)
	maximum = 0.064 (at node 8)
Accepted flit rate average= 0.048375
	minimum = 0.034 (at node 3)
	maximum = 0.066 (at node 0)
Injected packet length average = 1
Accepted packet length average = 1
Total in-flight flits = 23 (23 measured)
latency change    = 0.016604
throughput change = 0.00516796
Class 0:
Packet latency average = 20.0659
	minimum = 7
	maximum = 49
Network latency average = 20.0659
	minimum = 7
	maximum = 49
Slowest packet = 127751
Flit latency average = 20.0839
	minimum = 7
	maximum = 49
Slowest flit = 127751
Fragmentation average = 0
	minimum = 0
	maximum = 0
Injected packet rate average = 0.050375
	minimum = 0.035 (at node 4)
	maximum = 0.062 (at node 9)
Accepted packet rate average = 0.0499375
	minimum = 0.036 (at node 15)
	maximum = 0.065 (at node 0)
Injected flit rate average = 0.050375
	minimum = 0.035 (at node 4)
	maximum = 0.062 (at node 9)
Accepted flit rate average= 0.0499375
	minimum = 0.036 (at node 15)
	maximum = 0.065 (at node 0)
Injected packet length average = 1
Accepted packet length average = 1
Total in-flight flits = 17 (17 measured)
latency change    = 0.00791115
throughput change = 0.0312891
Class 0:
Packet latency average = 20.1533
	minimum = 7
	maximum = 49
Network latency average = 20.1533
	minimum = 7
	maximum = 49
Slowest packet = 127751
Flit latency average = 20.1646
	minimum = 7
	maximum = 49
Slowest flit = 127751
Fragmentation average = 0
	minimum = 0
	maximum = 0
Injected packet rate average = 0.0501667
	minimum = 0.0386667 (at node 4)
	maximum = 0.0626667 (at node 0)
Accepted packet rate average = 0.049875
	minimum = 0.038 (at node 9)
	maximum = 0.0613333 (at node 0)
Injected flit rate average = 0.0501667
	minimum = 0.0386667 (at node 4)
	maximum = 0.0626667 (at node 0)
Accepted flit rate average= 0.049875
	minimum = 0.038 (at node 9)
	maximum = 0.0613333 (at node 0)
Injected packet length average = 1
Accepted packet length average = 1
Total in-flight flits = 17 (17 measured)
latency change    = 0.00433782
throughput change = 0.00125313
Draining all recorded packets ...
Draining remaining packets ...
Time taken is 3064 cycles
Class 0:
Packet latency average = 20.5
	minimum = 7
	maximum = 46
Network latency average = 20.5
	minimum = 7
	maximum = 46
Slowest packet = 128666
Flit latency average = 20.5
	minimum = 7
	maximum = 46
Slowest flit = 128666
Fragmentation average = 0
	minimum = 0
	maximum = 0
Injected packet rate average = 0.050625
	minimum = 0.038 (at node 3)
	maximum = 0.068 (at node 0)
Accepted packet rate average = 0.04925
	minimum = 0.032 (at node 9)
	maximum = 0.064 (at node 3)
Injected flit rate average = 0.050625
	minimum = 0.038 (at node 3)
	maximum = 0.068 (at node 0)
Accepted flit rate average= 0.04925
	minimum = 0.032 (at node 9)
	maximum = 0.064 (at node 3)
Injected packet length average = 1
Accepted packet length average = 1
Total in-flight flits = 11 (0 measured)
latency change    = 1
throughput change = 1
Class 0:
Packet latency average = 20.0878
	minimum = 7
	maximum = 46
Network latency average = 20.0878
	minimum = 7
	maximum = 46
Slowest packet = 128666
Flit latency average = 20.0878
	minimum = 7
	maximum = 46
Slowest flit = 128666
Fragmentation average = 0
	minimum = 0
	maximum = 0
Injected packet rate average = 0.0513125
	minimum = 0.038 (at node 14)
	maximum = 0.062 (at node 0)
Accepted packet rate average = 0.0498125
	minimum = 0.033 (at node 2)
	maximum = 0.07 (at node 14)
Injected flit rate average = 0.0513125
	minimum = 0.038 (at node 14)
	maximum = 0.062 (at node 0)
Accepted flit rate average= 0.0498125
	minimum = 0.033 (at node 2)
	maximum = 0.07 (at node 14)
Injected packet length average = 1
Accepted packet length average = 1
Total in-flight flits = 24 (0 measured)
latency change    = 0.0205184
throughput change = 0.0112923
Class 0:
Packet latency average = 19.7416
	minimum = 7
	maximum = 41
Network latency average = 19.7416
	minimum = 7
	maximum = 41
Slowest packet = 129488
Flit latency average = 19.7416
	minimum = 7
	maximum = 41
Slowest flit = 129488
Fragmentation average = 0
	minimum = 0
	maximum = 0
Injected packet rate average = 0.051
	minimum = 0.03 (at node 15)
	maximum = 0.064 (at node 8)
Accepted packet rate average = 0.05225
	minimum = 0.042 (at node 7)
	maximum = 0.072 (at node 8)
Injected flit rate average = 0.051
	minimum = 0.03 (at node 15)
	maximum = 0.064 (at node 8)
Accepted flit rate average= 0.05225
	minimum = 0.042 (at node 7)
	maximum = 0.072 (at node 8)
Injected packet length average = 1
Accepted packet length average = 1
Total in-flight flits = 14 (0 measured)
latency change    = 0.0175367
throughput change = 0.0466507
Warmed up ...Time used is 1500 cycles
Class 0:
Packet latency average = 20.1436
	minimum = 7
	maximum = 41
Network latency average = 20.1436
	minimum = 7
	maximum = 41
Slowest packet = 129784
Flit latency average = 20.2214
	minimum = 7
	maximum = 41
Slowest flit = 129784
Fragmentation average = 0
	minimum = 0
	maximum = 0
Injected packet rate average = 0.052
	minimum = 0.036 (at node 0)
	maximum = 0.082 (at node 11)
Accepted packet rate average = 0.051375
	minimum = 0.034 (at node 12)
	maximum = 0.078 (at node 15)
Injected flit rate average = 0.052
	minimum = 0.036 (at node 0)
	maximum = 0.082 (at node 11)
Accepted flit rate average= 0.051375
	minimum = 0.034 (at node 12)
	maximum = 0.078 (at node 15)
Injected packet length average = 1
Accepted packet length average = 1
Total in-flight flits = 19 (19 measured)
latency change    = 0.0199543
throughput change = 0.0170316
Class 0:
Packet latency average = 19.9201
	minimum = 7
	maximum = 56
Network latency average = 19.9201
	minimum = 7
	maximum = 56
Slowest packet = 130365
Flit latency average = 19.9619
	minimum = 7
	maximum = 56
Slowest flit = 130365
Fragmentation average = 0
	minimum = 0
	maximum = 0
Injected packet rate average = 0.0528125
	minimum = 0.041 (at node 13)
	maximum = 0.069 (at node 11)
Accepted packet rate average = 0.0525
	minimum = 0.043 (at node 7)
	maximum = 0.067 (at node 15)
Injected flit rate average = 0.0528125
	minimum = 0.041 (at node 13)
	maximum = 0.069 (at node 11)
Accepted flit rate average= 0.0525
	minimum = 0.043 (at node 7)
	maximum = 0.067 (at node 15)
Injected packet length average = 1
Accepted packet length average = 1
Total in-flight flits = 19 (19 measured)
latency change    = 0.0112188
throughput change = 0.0214286
Class 0:
Packet latency average = 19.8807
	minimum = 7
	maximum = 56
Network latency average = 19.8807
	minimum = 7
	maximum = 56
Slowest packet = 130365
Flit latency average = 19.9093
	minimum = 7
	maximum = 56
Slowest flit = 130365
Fragmentation average = 0
	minimum = 0
	maximum = 0
Injected packet rate average = 0.0519167
	minimum = 0.0446667 (at node 0)
	maximum = 0.066 (at node 10)
Accepted packet rate average = 0.0519167
	minimum = 0.0406667 (at node 7)
	maximum = 0.0633333 (at node 15)
Injected flit rate average = 0.0519167
	minimum = 0.0446667 (at node 0)
	maximum = 0.066 (at node 10)
Accepted flit rate average= 0.0519167
	minimum = 0.0406667 (at node 7)
	maximum = 0.0633333 (at node 15)
Injected packet length average = 1
Accepted packet length average = 1
Total in-flight flits = 14 (14 measured)
latency change    = 0.00198258
throughput change = 0.011236
Draining all recorded packets ...
Draining remaining packets ...
Time taken is 3062 cycles
Class 0:
Packet latency average = 20.0576
	minimum = 7
	maximum = 46
Network latency average = 20.0576
	minimum = 7
	maximum = 46
Slowest packet = 131130
Flit latency average = 20.0576
	minimum = 7
	maximum = 46
Slowest flit = 131130
Fragmentation average = 0
	minimum = 0
	maximum = 0
Injected packet rate average = 0.049375
	minimum = 0.04 (at node 12)
	maximum = 0.06 (at node 1)
Accepted packet rate average = 0.04775
	minimum = 0.032 (at node 9)
	maximum = 0.062 (at node 3)
Injected flit rate average = 0.049375
	minimum = 0.04 (at node 12)
	maximum = 0.06 (at node 1)
Accepted flit rate average= 0.04775
	minimum = 0.032 (at node 9)
	maximum = 0.062 (at node 3)
Injected packet length average = 1
Accepted packet length average = 1
Total in-flight flits = 13 (0 measured)
latency change    = 1
throughput change = 1
Class 0:
Packet latency average = 19.9003
	minimum = 7
	maximum = 46
Network latency average = 19.9003
	minimum = 7
	maximum = 46
Slowest packet = 131130
Flit latency average = 19.9003
	minimum = 7
	maximum = 46
Slowest flit = 131130
Fragmentation average = 0
	minimum = 0
	maximum = 0
Injected packet rate average = 0.05075
	minimum = 0.042 (at node 12)
	maximum = 0.063 (at node 11)
Accepted packet rate average = 0.0495
	minimum = 0.039 (at node 13)
	maximum = 0.062 (at node 7)
Injected flit rate average = 0.05075
	minimum = 0.042 (at node 12)
	maximum = 0.063 (at node 11)
Accepted flit rate average= 0.0495
	minimum = 0.039 (at node 13)
	maximum = 0.062 (at node 7)
Injected packet length average = 1
Accepted packet length average = 1
Total in-flight flits = 20 (0 measured)
latency change    = 0.00790639
throughput change = 0.0353535
Class 0:
Packet latency average = 20.1663
	minimum = 7
	maximum = 41
Network latency average = 20.1663
	minimum = 7
	maximum = 41
Slowest packet = 131862
Flit latency average = 20.1663
	minimum = 7
	maximum = 41
Slowest flit = 131862
Fragmentation average = 0
	minimum = 0
	maximum = 0
Injected packet rate average = 0.051
	minimum = 0.032 (at node 2)
	maximum = 0.07 (at node 8)
Accepted packet rate average = 0.051875
	minimum = 0.04 (at node 2)
	maximum = 0.074 (at node 7)
Injected flit rate average = 0.051
	minimum = 0.032 (at node 2)
	maximum = 0.07 (at node 8)
Accepted flit rate average= 0.051875
	minimum = 0.04 (at node 2)
	maximum = 0.074 (at node 7)
Injected packet length average = 1
Accepted packet length average = 1
Total in-flight flits = 13 (0 measured)
latency change    = 0.013191
throughput change = 0.0457831
Warmed up ...Time used is 1500 cycles
Class 0:
Packet latency average = 19.3931
	minimum = 7
	maximum = 44
Network latency average = 19.3931
	minimum = 7
	maximum = 44
Slowest packet = 132514
Flit latency average = 19.5102
	minimum = 7
	maximum = 45
Slowest flit = 132212
Fragmentation average = 0
	minimum = 0
	maximum = 0
Injected packet rate average = 0.0495
	minimum = 0.028 (at node 14)
	maximum = 0.07 (at node 7)
Accepted packet rate average = 0.049
	minimum = 0.036 (at node 7)
	maximum = 0.064 (at node 4)
Injected flit rate average = 0.0495
	minimum = 0.028 (at node 14)
	maximum = 0.07 (at node 7)
Accepted flit rate average= 0.049
	minimum = 0.036 (at node 7)
	maximum = 0.064 (at node 4)
Injected packet length average = 1
Accepted packet length average = 1
Total in-flight flits = 17 (17 measured)
latency change    = 0.0398659
throughput change = 0.0586735
Class 0:
Packet latency average = 19.7456
	minimum = 7
	maximum = 46
Network latency average = 19.7456
	minimum = 7
	maximum = 46
Slowest packet = 132749
Flit latency average = 19.797
	minimum = 7
	maximum = 46
Slowest flit = 132749
Fragmentation average = 0
	minimum = 0
	maximum = 0
Injected packet rate average = 0.051
	minimum = 0.039 (at node 2)
	maximum = 0.067 (at node 9)
Accepted packet rate average = 0.0501875
	minimum = 0.039 (at node 15)
	maximum = 0.064 (at node 8)
Injected flit rate average = 0.051
	minimum = 0.039 (at node 2)
	maximum = 0.067 (at node 9)
Accepted flit rate average= 0.0501875
	minimum = 0.039 (at node 15)
	maximum = 0.064 (at node 8)
Injected packet length average = 1
Accepted packet length average = 1
Total in-flight flits = 26 (26 measured)
latency change    = 0.0178485
throughput change = 0.0236613
Class 0:
Packet latency average = 19.8741
	minimum = 7
	maximum = 46
Network latency average = 19.8741
	minimum = 7
	maximum = 46
Slowest packet = 132749
Flit latency average = 19.9077
	minimum = 7
	maximum = 46
Slowest flit = 132749
Fragmentation average = 0
	minimum = 0
	maximum = 0
Injected packet rate average = 0.0493333
	minimum = 0.0413333 (at node 0)
	maximum = 0.0593333 (at node 6)
Accepted packet rate average = 0.0492083
	minimum = 0.036 (at node 15)
	maximum = 0.0626667 (at node 8)
Injected flit rate average = 0.0493333
	minimum = 0.0413333 (at node 0)
	maximum = 0.0593333 (at node 6)
Accepted flit rate average= 0.0492083
	minimum = 0.036 (at node 15)
	maximum = 0.0626667 (at node 8)
Injected packet length average = 1
Accepted packet length average = 1
Total in-flight flits = 16 (16 measured)
latency change    = 0.00646942
throughput change = 0.0198984
Class 0:
Packet latency average = 19.8659
	minimum = 7
	maximum = 46
Network latency average = 19.8659
	minimum = 7
	maximum = 46
Slowest packet = 132749
Flit latency average = 19.8909
	minimum = 7
	maximum = 46
Slowest flit = 132749
Fragmentation average = 0
	minimum = 0
	maximum = 0
Injected packet rate average = 0.0496875
	minimum = 0.041 (at node 0)
	maximum = 0.057 (at node 4)
Accepted packet rate average = 0.0495625
	minimum = 0.038 (at node 15)
	maximum = 0.056 (at node 0)
Injected flit rate average = 0.0496875
	minimum = 0.041 (at node 0)
	maximum = 0.057 (at node 4)
Accepted flit rate average= 0.0495625
	minimum = 0.038 (at node 15)
	maximum = 0.056 (at node 0)
Injected packet length average = 1
Accepted packet length average = 1
Total in-flight flits = 17 (17 measured)
latency change    = 0.000416917
throughput change = 0.00714586
Draining all recorded packets ...
Draining remaining packets ...
Time taken is 3558 cycles
Class 0:
Packet latency average = 19.3648
	minimum = 7
	maximum = 40
Network latency average = 19.3648
	minimum = 7
	maximum = 40
Slowest packet = 133873
Flit latency average = 19.3648
	minimum = 7
	maximum = 40
Slowest flit = 133873
Fragmentation average = 0
	minimum = 0
	maximum = 0
Injected packet rate average = 0.05125
	minimum = 0.034 (at node 9)
	maximum = 0.062 (at node 10)
Accepted packet rate average = 0.049
	minimum = 0.028 (at node 3)
	maximum = 0.064 (at node 10)
Injected flit rate average = 0.05125
	minimum = 0.034 (at node 9)
	maximum = 0.062 (at node 10)
Accepted flit rate average= 0.049
	minimum = 0.028 (at node 3)
	maximum = 0.064 (at node 10)
Injected packet length average = 1
Accepted packet length average = 1
Total in-flight flits = 18 (0 measured)
latency change    = 1
throughput change = 1
Class 0:
Packet latency average = 19.7265
	minimum = 7
	maximum = 45
Network latency average = 19.7265
	minimum = 7
	maximum = 45
Slowest packet = 134534
Flit latency average = 19.7265
	minimum = 7
	maximum = 45
Slowest flit = 134534
Fragmentation average = 0
	minimum = 0
	maximum = 0
Injected packet rate average = 0.051625
	minimum = 0.038 (at node 9)
	maximum = 0.064 (at node 4)
Accepted packet rate average = 0.0505
	minimum = 0.039 (at node 11)
	maximum = 0.077 (at node 10)
Injected flit rate average = 0.051625
	minimum = 0.038 (at node 9)
	maximum = 0.064 (at node 4)
Accepted flit rate average= 0.0505
	minimum = 0.039 (at node 11)
	maximum = 0.077 (at node 10)
Injected packet length average = 1
Accepted packet length average = 1
Total in-flight flits = 18 (0 measured)
latency change    = 0.0183352
throughput change = 0.029703
Class 0:
Packet latency average = 19.8075
	minimum = 7
	maximum = 45
Network latency average = 19.8075
	minimum = 7
	maximum = 45
Slowest packet = 134640
Flit latency average = 19.8075
	minimum = 7
	maximum = 45
Slowest flit = 134640
Fragmentation average = 0
	minimum = 0
	maximum = 0
Injected packet rate average = 0.050375
	minimum = 0.032 (at node 8)
	maximum = 0.072 (at node 10)
Accepted packet rate average = 0.05
	minimum = 0.034 (at node 9)
	maximum = 0.074 (at node 1)
Injected flit rate average = 0.050375
	minimum = 0.032 (at node 8)
	maximum = 0.072 (at node 10)
Accepted flit rate average= 0.05
	minimum = 0.034 (at node 9)
	maximum = 0.074 (at node 1)
Injected packet length average = 1
Accepted packet length average = 1
Total in-flight flits = 21 (0 measured)
latency change    = 0.00409011
throughput change = 0.01
Warmed up ...Time used is 1500 cycles
Class 0:
Packet latency average = 20.2225
	minimum = 7
	maximum = 43
Network latency average = 20.2225
	minimum = 7
	maximum = 43
Slowest packet = 135371
Flit latency average = 20.1315
	minimum = 7
	maximum = 43
Slowest flit = 135371
Fragmentation average = 0
	minimum = 0
	maximum = 0
Injected packet rate average = 0.0505
	minimum = 0.034 (at node 2)
	maximum = 0.064 (at node 0)
Accepted packet rate average = 0.050375
	minimum = 0.032 (at node 10)
	maximum = 0.08 (at node 7)
Injected flit rate average = 0.0505
	minimum = 0.034 (at node 2)
	maximum = 0.064 (at node 0)
Accepted flit rate average= 0.050375
	minimum = 0.032 (at node 10)
	maximum = 0.08 (at node 7)
Injected packet length average = 1
Accepted packet length average = 1
Total in-flight flits = 22 (22 measured)
latency change    = 0.0205223
throughput change = 0.00744417
Class 0:
Packet latency average = 19.9462
	minimum = 7
	maximum = 44
Network latency average = 19.9462
	minimum = 7
	maximum = 44
Slowest packet = 135720
Flit latency average = 19.9086
	minimum = 7
	maximum = 44
Slowest flit = 135720
Fragmentation average = 0
	minimum = 0
	maximum = 0
Injected packet rate average = 0.0511875
	minimum = 0.04 (at node 6)
	maximum = 0.06 (at node 8)
Accepted packet rate average = 0.0513125
	minimum = 0.034 (at node 10)
	maximum = 0.067 (at node 7)
Injected flit rate average = 0.0511875
	minimum = 0.04 (at node 6)
	maximum = 0.06 (at node 8)
Accepted flit rate average= 0.0513125
	minimum = 0.034 (at node 10)
	maximum = 0.067 (at node 7)
Injected packet length average = 1
Accepted packet length average = 1
Total in-flight flits = 19 (19 measured)
latency change    = 0.0138504
throughput change = 0.0182704
Class 0:
Packet latency average = 20.0859
	minimum = 7
	maximum = 49
Network latency average = 20.0859
	minimum = 7
	maximum = 49
Slowest packet = 136137
Flit latency average = 20.0592
	minimum = 7
	maximum = 49
Slowest flit = 136137
Fragmentation average = 0
	minimum = 0
	maximum = 0
Injected packet rate average = 0.0524583
	minimum = 0.042 (at node 6)
	maximum = 0.0653333 (at node 8)
Accepted packet rate average = 0.0527917
	minimum = 0.0413333 (at node 10)
	maximum = 0.0706667 (at node 7)
Injected flit rate average = 0.0524583
	minimum = 0.042 (at node 6)
	maximum = 0.0653333 (at node 8)
Accepted flit rate average= 0.0527917
	minimum = 0.0413333 (at node 10)
	maximum = 0.0706667 (at node 7)
Injected packet length average = 1
Accepted packet length average = 1
Total in-flight flits = 13 (13 measured)
latency change    = 0.00695139
throughput change = 0.0280189
Draining all recorded packets ...
Draining remaining packets ...
Time taken is 3056 cycles
====== Overall Traffic Statistics ======
====== Traffic class 0 ======
Packet latency average = 19.9995 (50 samples)
	minimum = 7 (50 samples)
	maximum = 48.2 (50 samples)
Network latency average = 19.9995 (50 samples)
	minimum = 7 (50 samples)
	maximum = 48.2 (50 samples)
Flit latency average = 20.0233 (50 samples)
	minimum = 7 (50 samples)
	maximum = 48.26 (50 samples)
Fragmentation average = 0 (50 samples)
	minimum = 0 (50 samples)
	maximum = 0 (50 samples)
Injected packet rate average = 0.0502948 (50 samples)
	minimum = 0.0418027 (50 samples)
	maximum = 0.0595787 (50 samples)
Accepted packet rate average = 0.05029 (50 samples)
	minimum = 0.0410927 (50 samples)
	maximum = 0.05957 (50 samples)
Injected flit rate average = 0.0502948 (50 samples)
	minimum = 0.0418027 (50 samples)
	maximum = 0.0595787 (50 samples)
Accepted flit rate average = 0.05029 (50 samples)
	minimum = 0.0410927 (50 samples)
	maximum = 0.05957 (50 samples)
Injected packet size average = 1 (50 samples)
Accepted packet size average = 1 (50 samples)
Hops average = 3.48868 (50 samples)
Total run time 2.03603
