BEGIN Configuration File: /tmp/tmpkdr6lxm1.cfg
topology = mesh;
k = 4;
n = 2;
routing_function = gnn_port_score_route_4x4_v4;
num_vcs = 4;
vc_buf_size = 4;
wait_for_tail_credit = 1;
vc_allocator = islip;
sw_allocator = islip;
alloc_iters = 1;
credit_delay = 2;
routing_delay = 1;
vc_alloc_delay = 1;
sw_alloc_delay = 1;
input_speedup = 2;
output_speedup = 1;
internal_speedup = 1.0;
traffic = transpose;
packet_size = 1;
sim_type = latency;
injection_rate = 0.05;
warmup_periods = 3;
sample_period = 500;
sim_count = 50;
seed = 0;
link_failures = 4;
fail_seed = 101;

END Configuration File: /tmp/tmpkdr6lxm1.cfg
failure at node 14, channel 0 (1/4)
failure at node 12, channel 0 (2/4)
failure at node 4, channel 2 (3/4)
failure at node 11, channel 1 (4/4)
Class 0:
Packet latency average = 21.2245
	minimum = 7
	maximum = 55
Network latency average = 21.2245
	minimum = 7
	maximum = 55
Slowest packet = 243
Flit latency average = 21.2245
	minimum = 7
	maximum = 55
Slowest flit = 243
Fragmentation average = 0
	minimum = 0
	maximum = 0
Injected packet rate average = 0.049625
	minimum = 0.032 (at node 8)
	maximum = 0.064 (at node 13)
Accepted packet rate average = 0.047875
	minimum = 0.03 (at node 2)
	maximum = 0.062 (at node 4)
Injected flit rate average = 0.049625
	minimum = 0.032 (at node 8)
	maximum = 0.064 (at node 13)
Accepted flit rate average= 0.047875
	minimum = 0.03 (at node 2)
	maximum = 0.062 (at node 4)
Injected packet length average = 1
Accepted packet length average = 1
Total in-flight flits = 14 (0 measured)
latency change    = 1
throughput change = 1
Class 0:
Packet latency average = 21.0299
	minimum = 7
	maximum = 56
Network latency average = 21.0299
	minimum = 7
	maximum = 56
Slowest packet = 634
Flit latency average = 21.0299
	minimum = 7
	maximum = 56
Slowest flit = 634
Fragmentation average = 0
	minimum = 0
	maximum = 0
Injected packet rate average = 0.048875
	minimum = 0.041 (at node 5)
	maximum = 0.054 (at node 1)
Accepted packet rate average = 0.0480625
	minimum = 0.04 (at node 2)
	maximum = 0.054 (at node 4)
Injected flit rate average = 0.048875
	minimum = 0.041 (at node 5)
	maximum = 0.054 (at node 1)
Accepted flit rate average= 0.0480625
	minimum = 0.04 (at node 2)
	maximum = 0.054 (at node 4)
Injected packet length average = 1
Accepted packet length average = 1
Total in-flight flits = 13 (0 measured)
latency change    = 0.00925511
throughput change = 0.00390117
Class 0:
Packet latency average = 21.6933
	minimum = 7
	maximum = 74
Network latency average = 21.6933
	minimum = 7
	maximum = 74
Slowest packet = 1014
Flit latency average = 21.6933
	minimum = 7
	maximum = 74
Slowest flit = 1014
Fragmentation average = 0
	minimum = 0
	maximum = 0
Injected packet rate average = 0.05025
	minimum = 0.032 (at node 11)
	maximum = 0.064 (at node 12)
Accepted packet rate average = 0.0485
	minimum = 0.034 (at node 4)
	maximum = 0.064 (at node 0)
Injected flit rate average = 0.05025
	minimum = 0.032 (at node 11)
	maximum = 0.064 (at node 12)
Accepted flit rate average= 0.0485
	minimum = 0.034 (at node 4)
	maximum = 0.064 (at node 0)
Injected packet length average = 1
Accepted packet length average = 1
Total in-flight flits = 27 (0 measured)
latency change    = 0.0305804
throughput change = 0.00902062
Warmed up ...Time used is 1500 cycles
Class 0:
Packet latency average = 21.7596
	minimum = 7
	maximum = 85
Network latency average = 21.7596
	minimum = 7
	maximum = 85
Slowest packet = 1506
Flit latency average = 22.4682
	minimum = 7
	maximum = 85
Slowest flit = 1506
Fragmentation average = 0
	minimum = 0
	maximum = 0
Injected packet rate average = 0.048375
	minimum = 0.036 (at node 8)
	maximum = 0.066 (at node 13)
Accepted packet rate average = 0.049125
	minimum = 0.038 (at node 2)
	maximum = 0.068 (at node 3)
Injected flit rate average = 0.048375
	minimum = 0.036 (at node 8)
	maximum = 0.066 (at node 13)
Accepted flit rate average= 0.049125
	minimum = 0.038 (at node 2)
	maximum = 0.068 (at node 3)
Injected packet length average = 1
Accepted packet length average = 1
Total in-flight flits = 22 (22 measured)
latency change    = 0.00304528
throughput change = 0.0127226
Class 0:
Packet latency average = 22.7114
	minimum = 7
	maximum = 113
Network latency average = 22.4557
	minimum = 7
	maximum = 113
Slowest packet = 1857
Flit latency average = 22.7736
	minimum = 7
	maximum = 113
Slowest flit = 1857
Fragmentation average = 0
	minimum = 0
	maximum = 0
Injected packet rate average = 0.0505625
	minimum = 0.04 (at node 8)
	maximum = 0.066 (at node 13)
Accepted packet rate average = 0.0510625
	minimum = 0.041 (at node 2)
	maximum = 0.062 (at node 7)
Injected flit rate average = 0.0505625
	minimum = 0.04 (at node 8)
	maximum = 0.066 (at node 13)
Accepted flit rate average= 0.0510625
	minimum = 0.041 (at node 2)
	maximum = 0.062 (at node 7)
Injected packet length average = 1
Accepted packet length average = 1
Total in-flight flits = 19 (19 measured)
latency change    = 0.0419098
throughput change = 0.0379437
Class 0:
Packet latency average = 22.7565
	minimum = 7
	maximum = 145
Network latency average = 22.4536
	minimum = 7
	maximum = 128
Slowest packet = 1871
Flit latency average = 22.6661
	minimum = 7
	maximum = 128
Slowest flit = 1871
Fragmentation average = 0
	minimum = 0
	maximum = 0
Injected packet rate average = 0.0507083
	minimum = 0.0433333 (at node 8)
	maximum = 0.0573333 (at node 13)
Accepted packet rate average = 0.0509167
	minimum = 0.042 (at node 2)
	maximum = 0.058 (at node 7)
Injected flit rate average = 0.0507083
	minimum = 0.0433333 (at node 8)
	maximum = 0.0573333 (at node 13)
Accepted flit rate average= 0.0509167
	minimum = 0.042 (at node 2)
	maximum = 0.058 (at node 7)
Injected packet length average = 1
Accepted packet length average = 1
Total in-flight flits = 22 (22 measured)
latency change    = 0.00198154
throughput change = 0.00286416
Draining all recorded packets ...
Draining remaining packets ...
Time taken is 3115 cycles
Class 0:
Packet latency average = 21.0296
	minimum = 7
	maximum = 68
Network latency average = 21.0296
	minimum = 7
	maximum = 68
Slowest packet = 2602
Flit latency average = 21.0296
	minimum = 7
	maximum = 68
Slowest flit = 2602
Fragmentation average = 0
	minimum = 0
	maximum = 0
Injected packet rate average = 0.0495
	minimum = 0.04 (at node 0)
	maximum = 0.066 (at node 15)
Accepted packet rate average = 0.046375
	minimum = 0.038 (at node 3)
	maximum = 0.066 (at node 15)
Injected flit rate average = 0.0495
	minimum = 0.04 (at node 0)
	maximum = 0.066 (at node 15)
Accepted flit rate average= 0.046375
	minimum = 0.038 (at node 3)
	maximum = 0.066 (at node 15)
Injected packet length average = 1
Accepted packet length average = 1
Total in-flight flits = 25 (0 measured)
latency change    = 1
throughput change = 1
Class 0:
Packet latency average = 21.0227
	minimum = 7
	maximum = 68
Network latency average = 21.0227
	minimum = 7
	maximum = 68
Slowest packet = 2602
Flit latency average = 21.0227
	minimum = 7
	maximum = 68
Slowest flit = 2602
Fragmentation average = 0
	minimum = 0
	maximum = 0
Injected packet rate average = 0.0475625
	minimum = 0.034 (at node 0)
	maximum = 0.06 (at node 15)
Accepted packet rate average = 0.04675
	minimum = 0.034 (at node 0)
	maximum = 0.059 (at node 15)
Injected flit rate average = 0.0475625
	minimum = 0.034 (at node 0)
	maximum = 0.06 (at node 15)
Accepted flit rate average= 0.04675
	minimum = 0.034 (at node 0)
	maximum = 0.059 (at node 15)
Injected packet length average = 1
Accepted packet length average = 1
Total in-flight flits = 13 (0 measured)
latency change    = 0.000329278
throughput change = 0.00802139
Class 0:
Packet latency average = 21.0842
	minimum = 7
	maximum = 81
Network latency average = 21.0842
	minimum = 7
	maximum = 81
Slowest packet = 3483
Flit latency average = 21.0842
	minimum = 7
	maximum = 81
Slowest flit = 3483
Fragmentation average = 0
	minimum = 0
	maximum = 0
Injected packet rate average = 0.04575
	minimum = 0.032 (at node 7)
	maximum = 0.062 (at node 10)
Accepted packet rate average = 0.046
	minimum = 0.036 (at node 13)
	maximum = 0.062 (at node 10)
Injected flit rate average = 0.04575
	minimum = 0.032 (at node 7)
	maximum = 0.062 (at node 10)
Accepted flit rate average= 0.046
	minimum = 0.036 (at node 13)
	maximum = 0.062 (at node 10)
Injected packet length average = 1
Accepted packet length average = 1
Total in-flight flits = 11 (0 measured)
latency change    = 0.00291743
throughput change = 0.0163043
Warmed up ...Time used is 1500 cycles
Class 0:
Packet latency average = 20.2416
	minimum = 7
	maximum = 60
Network latency average = 20.2416
	minimum = 7
	maximum = 60
Slowest packet = 3756
Flit latency average = 20.4444
	minimum = 7
	maximum = 60
Slowest flit = 3756
Fragmentation average = 0
	minimum = 0
	maximum = 0
Injected packet rate average = 0.05025
	minimum = 0.036 (at node 0)
	maximum = 0.066 (at node 9)
Accepted packet rate average = 0.0495
	minimum = 0.032 (at node 7)
	maximum = 0.064 (at node 6)
Injected flit rate average = 0.05025
	minimum = 0.036 (at node 0)
	maximum = 0.066 (at node 9)
Accepted flit rate average= 0.0495
	minimum = 0.032 (at node 7)
	maximum = 0.064 (at node 6)
Injected packet length average = 1
Accepted packet length average = 1
Total in-flight flits = 17 (17 measured)
latency change    = 0.0416312
throughput change = 0.0707071
Class 0:
Packet latency average = 20.0207
	minimum = 7
	maximum = 60
Network latency average = 20.0207
	minimum = 7
	maximum = 60
Slowest packet = 3756
Flit latency average = 20.1264
	minimum = 7
	maximum = 60
Slowest flit = 3756
Fragmentation average = 0
	minimum = 0
	maximum = 0
Injected packet rate average = 0.04925
	minimum = 0.039 (at node 8)
	maximum = 0.061 (at node 5)
Accepted packet rate average = 0.0489375
	minimum = 0.038 (at node 2)
	maximum = 0.059 (at node 5)
Injected flit rate average = 0.04925
	minimum = 0.039 (at node 8)
	maximum = 0.061 (at node 5)
Accepted flit rate average= 0.0489375
	minimum = 0.038 (at node 2)
	maximum = 0.059 (at node 5)
Injected packet length average = 1
Accepted packet length average = 1
Total in-flight flits = 16 (16 measured)
latency change    = 0.0110302
throughput change = 0.0114943
Class 0:
Packet latency average = 20.8638
	minimum = 7
	maximum = 79
Network latency average = 20.8638
	minimum = 7
	maximum = 79
Slowest packet = 4594
Flit latency average = 20.9266
	minimum = 7
	maximum = 79
Slowest flit = 4594
Fragmentation average = 0
	minimum = 0
	maximum = 0
Injected packet rate average = 0.0490833
	minimum = 0.0386667 (at node 6)
	maximum = 0.0593333 (at node 15)
Accepted packet rate average = 0.0487917
	minimum = 0.0386667 (at node 9)
	maximum = 0.0593333 (at node 15)
Injected flit rate average = 0.0490833
	minimum = 0.0386667 (at node 6)
	maximum = 0.0593333 (at node 15)
Accepted flit rate average= 0.0487917
	minimum = 0.0386667 (at node 9)
	maximum = 0.0593333 (at node 15)
Injected packet length average = 1
Accepted packet length average = 1
Total in-flight flits = 18 (18 measured)
latency change    = 0.0404082
throughput change = 0.0029889
Class 0:
Packet latency average = 21.0382
	minimum = 7
	maximum = 79
Network latency average = 21.0382
	minimum = 7
	maximum = 79
Slowest packet = 4594
Flit latency average = 21.0827
	minimum = 7
	maximum = 79
Slowest flit = 4594
Fragmentation average = 0
	minimum = 0
	maximum = 0
Injected packet rate average = 0.0506875
	minimum = 0.0415 (at node 8)
	maximum = 0.058 (at node 12)
Accepted packet rate average = 0.05025
	minimum = 0.0415 (at node 2)
	maximum = 0.057 (at node 3)
Injected flit rate average = 0.0506875
	minimum = 0.0415 (at node 8)
	maximum = 0.058 (at node 12)
Accepted flit rate average= 0.05025
	minimum = 0.0415 (at node 2)
	maximum = 0.057 (at node 3)
Injected packet length average = 1
Accepted packet length average = 1
Total in-flight flits = 25 (25 measured)
latency change    = 0.00828985
throughput change = 0.0290216
Draining all recorded packets ...
Draining remaining packets ...
Time taken is 3576 cycles
Class 0:
Packet latency average = 22.4143
	minimum = 7
	maximum = 87
Network latency average = 22.4143
	minimum = 7
	maximum = 87
Slowest packet = 5435
Flit latency average = 22.4143
	minimum = 7
	maximum = 87
Slowest flit = 5435
Fragmentation average = 0
	minimum = 0
	maximum = 0
Injected packet rate average = 0.046625
	minimum = 0.034 (at node 12)
	maximum = 0.07 (at node 13)
Accepted packet rate average = 0.04375
	minimum = 0.028 (at node 3)
	maximum = 0.062 (at node 7)
Injected flit rate average = 0.046625
	minimum = 0.034 (at node 12)
	maximum = 0.07 (at node 13)
Accepted flit rate average= 0.04375
	minimum = 0.028 (at node 3)
	maximum = 0.062 (at node 7)
Injected packet length average = 1
Accepted packet length average = 1
Total in-flight flits = 23 (0 measured)
latency change    = 1
throughput change = 1
Class 0:
Packet latency average = 22.1628
	minimum = 7
	maximum = 94
Network latency average = 22.1628
	minimum = 7
	maximum = 94
Slowest packet = 5563
Flit latency average = 22.1628
	minimum = 7
	maximum = 94
Slowest flit = 5563
Fragmentation average = 0
	minimum = 0
	maximum = 0
Injected packet rate average = 0.049875
	minimum = 0.036 (at node 12)
	maximum = 0.064 (at node 13)
Accepted packet rate average = 0.048375
	minimum = 0.035 (at node 3)
	maximum = 0.061 (at node 9)
Injected flit rate average = 0.049875
	minimum = 0.036 (at node 12)
	maximum = 0.064 (at node 13)
Accepted flit rate average= 0.048375
	minimum = 0.035 (at node 3)
	maximum = 0.061 (at node 9)
Injected packet length average = 1
Accepted packet length average = 1
Total in-flight flits = 24 (0 measured)
latency change    = 0.0113476
throughput change = 0.0956072
Class 0:
Packet latency average = 22.9541
	minimum = 7
	maximum = 102
Network latency average = 22.9541
	minimum = 7
	maximum = 102
Slowest packet = 6032
Flit latency average = 22.9541
	minimum = 7
	maximum = 102
Slowest flit = 6032
Fragmentation average = 0
	minimum = 0
	maximum = 0
Injected packet rate average = 0.047
	minimum = 0.032 (at node 10)
	maximum = 0.058 (at node 3)
Accepted packet rate average = 0.049
	minimum = 0.034 (at node 10)
	maximum = 0.062 (at node 12)
Injected flit rate average = 0.047
	minimum = 0.032 (at node 10)
	maximum = 0.058 (at node 3)
Accepted flit rate average= 0.049
	minimum = 0.034 (at node 10)
	maximum = 0.062 (at node 12)
Injected packet length average = 1
Accepted packet length average = 1
Total in-flight flits = 8 (0 measured)
latency change    = 0.0344728
throughput change = 0.0127551
Warmed up ...Time used is 1500 cycles
Class 0:
Packet latency average = 20.48
	minimum = 7
	maximum = 61
Network latency average = 20.48
	minimum = 7
	maximum = 61
Slowest packet = 6737
Flit latency average = 20.4779
	minimum = 7
	maximum = 61
Slowest flit = 6737
Fragmentation average = 0
	minimum = 0
	maximum = 0
Injected packet rate average = 0.053125
	minimum = 0.036 (at node 13)
	maximum = 0.07 (at node 1)
Accepted packet rate average = 0.051
	minimum = 0.036 (at node 7)
	maximum = 0.068 (at node 4)
Injected flit rate average = 0.053125
	minimum = 0.036 (at node 13)
	maximum = 0.07 (at node 1)
Accepted flit rate average= 0.051
	minimum = 0.036 (at node 7)
	maximum = 0.068 (at node 4)
Injected packet length average = 1
Accepted packet length average = 1
Total in-flight flits = 25 (25 measured)
latency change    = 0.120805
throughput change = 0.0392157
Class 0:
Packet latency average = 21.3076
	minimum = 7
	maximum = 67
Network latency average = 21.3076
	minimum = 7
	maximum = 67
Slowest packet = 7081
Flit latency average = 21.2985
	minimum = 7
	maximum = 67
Slowest flit = 7081
Fragmentation average = 0
	minimum = 0
	maximum = 0
Injected packet rate average = 0.0524375
	minimum = 0.041 (at node 13)
	maximum = 0.064 (at node 6)
Accepted packet rate average = 0.0515
	minimum = 0.039 (at node 7)
	maximum = 0.064 (at node 9)
Injected flit rate average = 0.0524375
	minimum = 0.041 (at node 13)
	maximum = 0.064 (at node 6)
Accepted flit rate average= 0.0515
	minimum = 0.039 (at node 7)
	maximum = 0.064 (at node 9)
Injected packet length average = 1
Accepted packet length average = 1
Total in-flight flits = 23 (23 measured)
latency change    = 0.0388405
throughput change = 0.00970874
Class 0:
Packet latency average = 21.3734
	minimum = 7
	maximum = 102
Network latency average = 21.3734
	minimum = 7
	maximum = 102
Slowest packet = 7396
Flit latency average = 21.3668
	minimum = 7
	maximum = 102
Slowest flit = 7396
Fragmentation average = 0
	minimum = 0
	maximum = 0
Injected packet rate average = 0.0506667
	minimum = 0.0386667 (at node 13)
	maximum = 0.0586667 (at node 15)
Accepted packet rate average = 0.0502083
	minimum = 0.0393333 (at node 7)
	maximum = 0.0593333 (at node 15)
Injected flit rate average = 0.0506667
	minimum = 0.0386667 (at node 13)
	maximum = 0.0586667 (at node 15)
Accepted flit rate average= 0.0502083
	minimum = 0.0393333 (at node 7)
	maximum = 0.0593333 (at node 15)
Injected packet length average = 1
Accepted packet length average = 1
Total in-flight flits = 19 (19 measured)
latency change    = 0.00308025
throughput change = 0.0257261
Class 0:
Packet latency average = 21.2709
	minimum = 7
	maximum = 102
Network latency average = 21.2709
	minimum = 7
	maximum = 102
Slowest packet = 7396
Flit latency average = 21.2663
	minimum = 7
	maximum = 102
Slowest flit = 7396
Fragmentation average = 0
	minimum = 0
	maximum = 0
Injected packet rate average = 0.0496875
	minimum = 0.0405 (at node 13)
	maximum = 0.055 (at node 15)
Accepted packet rate average = 0.0492812
	minimum = 0.04 (at node 7)
	maximum = 0.0555 (at node 15)
Injected flit rate average = 0.0496875
	minimum = 0.0405 (at node 13)
	maximum = 0.055 (at node 15)
Accepted flit rate average= 0.0492812
	minimum = 0.04 (at node 7)
	maximum = 0.0555 (at node 15)
Injected packet length average = 1
Accepted packet length average = 1
Total in-flight flits = 21 (21 measured)
latency change    = 0.00482164
throughput change = 0.0188121
Draining all recorded packets ...
Draining remaining packets ...
Time taken is 3607 cycles
Class 0:
Packet latency average = 19.9396
	minimum = 7
	maximum = 48
Network latency average = 19.9396
	minimum = 7
	maximum = 48
Slowest packet = 8115
Flit latency average = 19.9396
	minimum = 7
	maximum = 48
Slowest flit = 8115
Fragmentation average = 0
	minimum = 0
	maximum = 0
Injected packet rate average = 0.04875
	minimum = 0.032 (at node 1)
	maximum = 0.064 (at node 11)
Accepted packet rate average = 0.047625
	minimum = 0.032 (at node 4)
	maximum = 0.062 (at node 14)
Injected flit rate average = 0.04875
	minimum = 0.032 (at node 1)
	maximum = 0.064 (at node 11)
Accepted flit rate average= 0.047625
	minimum = 0.032 (at node 4)
	maximum = 0.062 (at node 14)
Injected packet length average = 1
Accepted packet length average = 1
Total in-flight flits = 9 (0 measured)
latency change    = 1
throughput change = 1
Class 0:
Packet latency average = 20.8094
	minimum = 7
	maximum = 87
Network latency average = 20.8094
	minimum = 7
	maximum = 87
Slowest packet = 8709
Flit latency average = 20.8094
	minimum = 7
	maximum = 87
Slowest flit = 8709
Fragmentation average = 0
	minimum = 0
	maximum = 0
Injected packet rate average = 0.0488125
	minimum = 0.038 (at node 3)
	maximum = 0.057 (at node 4)
Accepted packet rate average = 0.047875
	minimum = 0.036 (at node 12)
	maximum = 0.056 (at node 6)
Injected flit rate average = 0.0488125
	minimum = 0.038 (at node 3)
	maximum = 0.057 (at node 4)
Accepted flit rate average= 0.047875
	minimum = 0.036 (at node 12)
	maximum = 0.056 (at node 6)
Injected packet length average = 1
Accepted packet length average = 1
Total in-flight flits = 15 (0 measured)
latency change    = 0.0417968
throughput change = 0.00522193
Class 0:
Packet latency average = 23.3427
	minimum = 7
	maximum = 84
Network latency average = 23.3427
	minimum = 7
	maximum = 84
Slowest packet = 8939
Flit latency average = 23.3427
	minimum = 7
	maximum = 84
Slowest flit = 8939
Fragmentation average = 0
	minimum = 0
	maximum = 0
Injected packet rate average = 0.052625
	minimum = 0.036 (at node 3)
	maximum = 0.078 (at node 12)
Accepted packet rate average = 0.05325
	minimum = 0.038 (at node 11)
	maximum = 0.076 (at node 3)
Injected flit rate average = 0.052625
	minimum = 0.036 (at node 3)
	maximum = 0.078 (at node 12)
Accepted flit rate average= 0.05325
	minimum = 0.038 (at node 11)
	maximum = 0.076 (at node 3)
Injected packet length average = 1
Accepted packet length average = 1
Total in-flight flits = 10 (0 measured)
latency change    = 0.108527
throughput change = 0.100939
Warmed up ...Time used is 1500 cycles
Class 0:
Packet latency average = 21.6598
	minimum = 7
	maximum = 76
Network latency average = 21.6598
	minimum = 7
	maximum = 76
Slowest packet = 9541
Flit latency average = 21.8928
	minimum = 7
	maximum = 76
Slowest flit = 9541
Fragmentation average = 0
	minimum = 0
	maximum = 0
Injected packet rate average = 0.051
	minimum = 0.032 (at node 9)
	maximum = 0.07 (at node 0)
Accepted packet rate average = 0.050125
	minimum = 0.032 (at node 6)
	maximum = 0.07 (at node 0)
Injected flit rate average = 0.051
	minimum = 0.032 (at node 9)
	maximum = 0.07 (at node 0)
Accepted flit rate average= 0.050125
	minimum = 0.032 (at node 6)
	maximum = 0.07 (at node 0)
Injected packet length average = 1
Accepted packet length average = 1
Total in-flight flits = 17 (17 measured)
latency change    = 0.0776957
throughput change = 0.0623441
Class 0:
Packet latency average = 21.7439
	minimum = 7
	maximum = 76
Network latency average = 21.7439
	minimum = 7
	maximum = 76
Slowest packet = 9541
Flit latency average = 21.8549
	minimum = 7
	maximum = 76
Slowest flit = 9541
Fragmentation average = 0
	minimum = 0
	maximum = 0
Injected packet rate average = 0.052125
	minimum = 0.041 (at node 14)
	maximum = 0.062 (at node 0)
Accepted packet rate average = 0.052125
	minimum = 0.041 (at node 11)
	maximum = 0.062 (at node 0)
Injected flit rate average = 0.052125
	minimum = 0.041 (at node 14)
	maximum = 0.062 (at node 0)
Accepted flit rate average= 0.052125
	minimum = 0.041 (at node 11)
	maximum = 0.062 (at node 0)
Injected packet length average = 1
Accepted packet length average = 1
Total in-flight flits = 10 (10 measured)
latency change    = 0.00386708
throughput change = 0.0383693
Class 0:
Packet latency average = 21.4722
	minimum = 7
	maximum = 80
Network latency average = 21.4722
	minimum = 7
	maximum = 80
Slowest packet = 10126
Flit latency average = 21.5483
	minimum = 7
	maximum = 80
Slowest flit = 10126
Fragmentation average = 0
	minimum = 0
	maximum = 0
Injected packet rate average = 0.0525
	minimum = 0.0433333 (at node 14)
	maximum = 0.0586667 (at node 0)
Accepted packet rate average = 0.0522083
	minimum = 0.0426667 (at node 11)
	maximum = 0.0593333 (at node 8)
Injected flit rate average = 0.0525
	minimum = 0.0433333 (at node 14)
	maximum = 0.0586667 (at node 0)
Accepted flit rate average= 0.0522083
	minimum = 0.0426667 (at node 11)
	maximum = 0.0593333 (at node 8)
Injected packet length average = 1
Accepted packet length average = 1
Total in-flight flits = 17 (17 measured)
latency change    = 0.012653
throughput change = 0.00159617
Class 0:
Packet latency average = 21.695
	minimum = 7
	maximum = 98
Network latency average = 21.6902
	minimum = 7
	maximum = 94
Slowest packet = 10839
Flit latency average = 21.7451
	minimum = 7
	maximum = 94
Slowest flit = 10839
Fragmentation average = 0
	minimum = 0
	maximum = 0
Injected packet rate average = 0.0530313
	minimum = 0.043 (at node 14)
	maximum = 0.0625 (at node 10)
Accepted packet rate average = 0.0529688
	minimum = 0.043 (at node 11)
	maximum = 0.0625 (at node 10)
Injected flit rate average = 0.0530313
	minimum = 0.043 (at node 14)
	maximum = 0.0625 (at node 10)
Accepted flit rate average= 0.0529688
	minimum = 0.043 (at node 11)
	maximum = 0.0625 (at node 10)
Injected packet length average = 1
Accepted packet length average = 1
Total in-flight flits = 12 (12 measured)
latency change    = 0.0102656
throughput change = 0.0143559
Draining all recorded packets ...
Draining remaining packets ...
Time taken is 3565 cycles
Class 0:
Packet latency average = 22.278
	minimum = 7
	maximum = 72
Network latency average = 22.2537
	minimum = 7
	maximum = 72
Slowest packet = 11066
Flit latency average = 22.2537
	minimum = 7
	maximum = 72
Slowest flit = 11066
Fragmentation average = 0
	minimum = 0
	maximum = 0
Injected packet rate average = 0.05325
	minimum = 0.034 (at node 3)
	maximum = 0.08 (at node 11)
Accepted packet rate average = 0.05125
	minimum = 0.032 (at node 12)
	maximum = 0.08 (at node 14)
Injected flit rate average = 0.05325
	minimum = 0.034 (at node 3)
	maximum = 0.08 (at node 11)
Accepted flit rate average= 0.05125
	minimum = 0.032 (at node 12)
	maximum = 0.08 (at node 14)
Injected packet length average = 1
Accepted packet length average = 1
Total in-flight flits = 16 (0 measured)
latency change    = 1
throughput change = 1
Class 0:
Packet latency average = 21.9042
	minimum = 7
	maximum = 72
Network latency average = 21.8916
	minimum = 7
	maximum = 72
Slowest packet = 11066
Flit latency average = 21.8916
	minimum = 7
	maximum = 72
Slowest flit = 11066
Fragmentation average = 0
	minimum = 0
	maximum = 0
Injected packet rate average = 0.050375
	minimum = 0.038 (at node 6)
	maximum = 0.066 (at node 11)
Accepted packet rate average = 0.0495625
	minimum = 0.038 (at node 9)
	maximum = 0.064 (at node 14)
Injected flit rate average = 0.050375
	minimum = 0.038 (at node 6)
	maximum = 0.066 (at node 11)
Accepted flit rate average= 0.0495625
	minimum = 0.038 (at node 9)
	maximum = 0.064 (at node 14)
Injected packet length average = 1
Accepted packet length average = 1
Total in-flight flits = 13 (0 measured)
latency change    = 0.0170692
throughput change = 0.0340479
Class 0:
Packet latency average = 20.9098
	minimum = 7
	maximum = 65
Network latency average = 20.8947
	minimum = 7
	maximum = 65
Slowest packet = 11877
Flit latency average = 20.8947
	minimum = 7
	maximum = 65
Slowest flit = 11877
Fragmentation average = 0
	minimum = 0
	maximum = 0
Injected packet rate average = 0.04975
	minimum = 0.036 (at node 6)
	maximum = 0.062 (at node 2)
Accepted packet rate average = 0.049875
	minimum = 0.036 (at node 9)
	maximum = 0.062 (at node 14)
Injected flit rate average = 0.04975
	minimum = 0.036 (at node 6)
	maximum = 0.062 (at node 2)
Accepted flit rate average= 0.049875
	minimum = 0.036 (at node 9)
	maximum = 0.062 (at node 14)
Injected packet length average = 1
Accepted packet length average = 1
Total in-flight flits = 12 (0 measured)
latency change    = 0.0475561
throughput change = 0.00626566
Warmed up ...Time used is 1500 cycles
Class 0:
Packet latency average = 20.0964
	minimum = 7
	maximum = 60
Network latency average = 20.0964
	minimum = 7
	maximum = 60
Slowest packet = 12301
Flit latency average = 20.1515
	minimum = 7
	maximum = 60
Slowest flit = 12301
Fragmentation average = 0
	minimum = 0
	maximum = 0
Injected packet rate average = 0.049625
	minimum = 0.034 (at node 4)
	maximum = 0.068 (at node 15)
Accepted packet rate average = 0.0495
	minimum = 0.036 (at node 1)
	maximum = 0.066 (at node 15)
Injected flit rate average = 0.049625
	minimum = 0.034 (at node 4)
	maximum = 0.068 (at node 15)
Accepted flit rate average= 0.0495
	minimum = 0.036 (at node 1)
	maximum = 0.066 (at node 15)
Injected packet length average = 1
Accepted packet length average = 1
Total in-flight flits = 13 (13 measured)
latency change    = 0.040476
throughput change = 0.00757576
Class 0:
Packet latency average = 20.7427
	minimum = 7
	maximum = 73
Network latency average = 20.7427
	minimum = 7
	maximum = 73
Slowest packet = 12902
Flit latency average = 20.7604
	minimum = 7
	maximum = 73
Slowest flit = 12902
Fragmentation average = 0
	minimum = 0
	maximum = 0
Injected packet rate average = 0.0504375
	minimum = 0.036 (at node 0)
	maximum = 0.062 (at node 15)
Accepted packet rate average = 0.0498125
	minimum = 0.036 (at node 0)
	maximum = 0.061 (at node 11)
Injected flit rate average = 0.0504375
	minimum = 0.036 (at node 0)
	maximum = 0.062 (at node 15)
Accepted flit rate average= 0.0498125
	minimum = 0.036 (at node 0)
	maximum = 0.061 (at node 11)
Injected packet length average = 1
Accepted packet length average = 1
Total in-flight flits = 22 (22 measured)
latency change    = 0.031159
throughput change = 0.00627353
Class 0:
Packet latency average = 20.2811
	minimum = 7
	maximum = 73
Network latency average = 20.2811
	minimum = 7
	maximum = 73
Slowest packet = 12902
Flit latency average = 20.298
	minimum = 7
	maximum = 73
Slowest flit = 12902
Fragmentation average = 0
	minimum = 0
	maximum = 0
Injected packet rate average = 0.0484583
	minimum = 0.036 (at node 7)
	maximum = 0.06 (at node 15)
Accepted packet rate average = 0.048375
	minimum = 0.0366667 (at node 13)
	maximum = 0.06 (at node 15)
Injected flit rate average = 0.0484583
	minimum = 0.036 (at node 7)
	maximum = 0.06 (at node 15)
Accepted flit rate average= 0.048375
	minimum = 0.0366667 (at node 13)
	maximum = 0.06 (at node 15)
Injected packet length average = 1
Accepted packet length average = 1
Total in-flight flits = 14 (14 measured)
latency change    = 0.0227582
throughput change = 0.0297158
Draining all recorded packets ...
Draining remaining packets ...
Time taken is 3069 cycles
Class 0:
Packet latency average = 22.4796
	minimum = 7
	maximum = 68
Network latency average = 22.4796
	minimum = 7
	maximum = 68
Slowest packet = 13593
Flit latency average = 22.4796
	minimum = 7
	maximum = 68
Slowest flit = 13593
Fragmentation average = 0
	minimum = 0
	maximum = 0
Injected packet rate average = 0.05
	minimum = 0.036 (at node 15)
	maximum = 0.076 (at node 12)
Accepted packet rate average = 0.049
	minimum = 0.036 (at node 2)
	maximum = 0.076 (at node 3)
Injected flit rate average = 0.05
	minimum = 0.036 (at node 15)
	maximum = 0.076 (at node 12)
Accepted flit rate average= 0.049
	minimum = 0.036 (at node 2)
	maximum = 0.076 (at node 3)
Injected packet length average = 1
Accepted packet length average = 1
Total in-flight flits = 8 (0 measured)
latency change    = 1
throughput change = 1
Class 0:
Packet latency average = 21.9709
	minimum = 7
	maximum = 71
Network latency average = 21.9629
	minimum = 7
	maximum = 71
Slowest packet = 14085
Flit latency average = 21.9629
	minimum = 7
	maximum = 71
Slowest flit = 14085
Fragmentation average = 0
	minimum = 0
	maximum = 0
Injected packet rate average = 0.047875
	minimum = 0.037 (at node 15)
	maximum = 0.066 (at node 12)
Accepted packet rate average = 0.0471875
	minimum = 0.037 (at node 15)
	maximum = 0.064 (at node 3)
Injected flit rate average = 0.047875
	minimum = 0.037 (at node 15)
	maximum = 0.066 (at node 12)
Accepted flit rate average= 0.0471875
	minimum = 0.037 (at node 15)
	maximum = 0.064 (at node 3)
Injected packet length average = 1
Accepted packet length average = 1
Total in-flight flits = 11 (0 measured)
latency change    = 0.0231548
throughput change = 0.0384106
Class 0:
Packet latency average = 23.3669
	minimum = 7
	maximum = 85
Network latency average = 23.3669
	minimum = 7
	maximum = 85
Slowest packet = 14341
Flit latency average = 23.3669
	minimum = 7
	maximum = 85
Slowest flit = 14341
Fragmentation average = 0
	minimum = 0
	maximum = 0
Injected packet rate average = 0.052625
	minimum = 0.034 (at node 10)
	maximum = 0.08 (at node 14)
Accepted packet rate average = 0.052125
	minimum = 0.034 (at node 10)
	maximum = 0.08 (at node 11)
Injected flit rate average = 0.052625
	minimum = 0.034 (at node 10)
	maximum = 0.08 (at node 14)
Accepted flit rate average= 0.052125
	minimum = 0.034 (at node 10)
	maximum = 0.08 (at node 11)
Injected packet length average = 1
Accepted packet length average = 1
Total in-flight flits = 15 (0 measured)
latency change    = 0.0597446
throughput change = 0.0947242
Warmed up ...Time used is 1500 cycles
Class 0:
Packet latency average = 24.4987
	minimum = 7
	maximum = 111
Network latency average = 24.4987
	minimum = 7
	maximum = 111
Slowest packet = 14786
Flit latency average = 24.6244
	minimum = 7
	maximum = 111
Slowest flit = 14786
Fragmentation average = 0
	minimum = 0
	maximum = 0
Injected packet rate average = 0.051375
	minimum = 0.038 (at node 1)
	maximum = 0.074 (at node 13)
Accepted packet rate average = 0.05125
	minimum = 0.038 (at node 4)
	maximum = 0.074 (at node 13)
Injected flit rate average = 0.051375
	minimum = 0.038 (at node 1)
	maximum = 0.074 (at node 13)
Accepted flit rate average= 0.05125
	minimum = 0.038 (at node 4)
	maximum = 0.074 (at node 13)
Injected packet length average = 1
Accepted packet length average = 1
Total in-flight flits = 16 (16 measured)
latency change    = 0.0461994
throughput change = 0.0170732
Class 0:
Packet latency average = 22.8989
	minimum = 7
	maximum = 111
Network latency average = 22.8989
	minimum = 7
	maximum = 111
Slowest packet = 14786
Flit latency average = 22.9914
	minimum = 7
	maximum = 111
Slowest flit = 14786
Fragmentation average = 0
	minimum = 0
	maximum = 0
Injected packet rate average = 0.051125
	minimum = 0.041 (at node 3)
	maximum = 0.065 (at node 4)
Accepted packet rate average = 0.051
	minimum = 0.041 (at node 12)
	maximum = 0.067 (at node 1)
Injected flit rate average = 0.051125
	minimum = 0.041 (at node 3)
	maximum = 0.065 (at node 4)
Accepted flit rate average= 0.051
	minimum = 0.041 (at node 12)
	maximum = 0.067 (at node 1)
Injected packet length average = 1
Accepted packet length average = 1
Total in-flight flits = 17 (17 measured)
latency change    = 0.0698662
throughput change = 0.00490196
Class 0:
Packet latency average = 22.5326
	minimum = 7
	maximum = 111
Network latency average = 22.5326
	minimum = 7
	maximum = 111
Slowest packet = 14786
Flit latency average = 22.5985
	minimum = 7
	maximum = 111
Slowest flit = 14786
Fragmentation average = 0
	minimum = 0
	maximum = 0
Injected packet rate average = 0.0514583
	minimum = 0.0413333 (at node 5)
	maximum = 0.062 (at node 7)
Accepted packet rate average = 0.0511667
	minimum = 0.0413333 (at node 5)
	maximum = 0.062 (at node 1)
Injected flit rate average = 0.0514583
	minimum = 0.0413333 (at node 5)
	maximum = 0.062 (at node 7)
Accepted flit rate average= 0.0511667
	minimum = 0.0413333 (at node 5)
	maximum = 0.062 (at node 1)
Injected packet length average = 1
Accepted packet length average = 1
Total in-flight flits = 22 (22 measured)
latency change    = 0.016257
throughput change = 0.00325733
Class 0:
Packet latency average = 22.4717
	minimum = 7
	maximum = 111
Network latency average = 22.4636
	minimum = 7
	maximum = 111
Slowest packet = 14786
Flit latency average = 22.5142
	minimum = 7
	maximum = 111
Slowest flit = 14786
Fragmentation average = 0
	minimum = 0
	maximum = 0
Injected packet rate average = 0.050875
	minimum = 0.043 (at node 15)
	maximum = 0.061 (at node 7)
Accepted packet rate average = 0.050625
	minimum = 0.043 (at node 15)
	maximum = 0.0605 (at node 13)
Injected flit rate average = 0.050875
	minimum = 0.043 (at node 15)
	maximum = 0.061 (at node 7)
Accepted flit rate average= 0.050625
	minimum = 0.043 (at node 15)
	maximum = 0.0605 (at node 13)
Injected packet length average = 1
Accepted packet length average = 1
Total in-flight flits = 23 (23 measured)
latency change    = 0.00271065
throughput change = 0.0106996
Class 0:
Packet latency average = 23.0394
	minimum = 7
	maximum = 113
Network latency average = 23.0092
	minimum = 7
	maximum = 111
Slowest packet = 14786
Flit latency average = 23.0449
	minimum = 7
	maximum = 111
Slowest flit = 14786
Fragmentation average = 0
	minimum = 0
	maximum = 0
Injected packet rate average = 0.0519
	minimum = 0.0444 (at node 15)
	maximum = 0.06 (at node 7)
Accepted packet rate average = 0.0518
	minimum = 0.0444 (at node 15)
	maximum = 0.0604 (at node 13)
Injected flit rate average = 0.0519
	minimum = 0.0444 (at node 15)
	maximum = 0.06 (at node 7)
Accepted flit rate average= 0.0518
	minimum = 0.0444 (at node 15)
	maximum = 0.0604 (at node 13)
Injected packet length average = 1
Accepted packet length average = 1
Total in-flight flits = 19 (19 measured)
latency change    = 0.0246416
throughput change = 0.0226834
Draining all recorded packets ...
Draining remaining packets ...
Time taken is 4081 cycles
Class 0:
Packet latency average = 21.7676
	minimum = 7
	maximum = 63
Network latency average = 21.7676
	minimum = 7
	maximum = 63
Slowest packet = 16808
Flit latency average = 21.7676
	minimum = 7
	maximum = 63
Slowest flit = 16808
Fragmentation average = 0
	minimum = 0
	maximum = 0
Injected packet rate average = 0.050125
	minimum = 0.026 (at node 11)
	maximum = 0.076 (at node 9)
Accepted packet rate average = 0.047875
	minimum = 0.024 (at node 14)
	maximum = 0.074 (at node 6)
Injected flit rate average = 0.050125
	minimum = 0.026 (at node 11)
	maximum = 0.076 (at node 9)
Accepted flit rate average= 0.047875
	minimum = 0.024 (at node 14)
	maximum = 0.074 (at node 6)
Injected packet length average = 1
Accepted packet length average = 1
Total in-flight flits = 18 (0 measured)
latency change    = 1
throughput change = 1
Class 0:
Packet latency average = 22.485
	minimum = 7
	maximum = 78
Network latency average = 22.485
	minimum = 7
	maximum = 78
Slowest packet = 17398
Flit latency average = 22.485
	minimum = 7
	maximum = 78
Slowest flit = 17398
Fragmentation average = 0
	minimum = 0
	maximum = 0
Injected packet rate average = 0.0513125
	minimum = 0.029 (at node 11)
	maximum = 0.062 (at node 9)
Accepted packet rate average = 0.049875
	minimum = 0.029 (at node 14)
	maximum = 0.06 (at node 6)
Injected flit rate average = 0.0513125
	minimum = 0.029 (at node 11)
	maximum = 0.062 (at node 9)
Accepted flit rate average= 0.049875
	minimum = 0.029 (at node 14)
	maximum = 0.06 (at node 6)
Injected packet length average = 1
Accepted packet length average = 1
Total in-flight flits = 23 (0 measured)
latency change    = 0.031903
throughput change = 0.0401003
Class 0:
Packet latency average = 22.2709
	minimum = 7
	maximum = 92
Network latency average = 22.2709
	minimum = 7
	maximum = 92
Slowest packet = 17545
Flit latency average = 22.2709
	minimum = 7
	maximum = 92
Slowest flit = 17545
Fragmentation average = 0
	minimum = 0
	maximum = 0
Injected packet rate average = 0.04825
	minimum = 0.024 (at node 1)
	maximum = 0.062 (at node 13)
Accepted packet rate average = 0.049375
	minimum = 0.028 (at node 4)
	maximum = 0.066 (at node 7)
Injected flit rate average = 0.04825
	minimum = 0.024 (at node 1)
	maximum = 0.062 (at node 13)
Accepted flit rate average= 0.049375
	minimum = 0.028 (at node 4)
	maximum = 0.066 (at node 7)
Injected packet length average = 1
Accepted packet length average = 1
Total in-flight flits = 14 (0 measured)
latency change    = 0.00961238
throughput change = 0.0101266
Warmed up ...Time used is 1500 cycles
Class 0:
Packet latency average = 21.2616
	minimum = 7
	maximum = 68
Network latency average = 21.2616
	minimum = 7
	maximum = 68
Slowest packet = 18080
Flit latency average = 21.5343
	minimum = 7
	maximum = 68
Slowest flit = 18080
Fragmentation average = 0
	minimum = 0
	maximum = 0
Injected packet rate average = 0.05325
	minimum = 0.036 (at node 1)
	maximum = 0.072 (at node 0)
Accepted packet rate average = 0.052875
	minimum = 0.034 (at node 4)
	maximum = 0.072 (at node 0)
Injected flit rate average = 0.05325
	minimum = 0.036 (at node 1)
	maximum = 0.072 (at node 0)
Accepted flit rate average= 0.052875
	minimum = 0.034 (at node 4)
	maximum = 0.072 (at node 0)
Injected packet length average = 1
Accepted packet length average = 1
Total in-flight flits = 17 (17 measured)
latency change    = 0.0474692
throughput change = 0.0661939
Class 0:
Packet latency average = 20.9403
	minimum = 7
	maximum = 68
Network latency average = 20.9403
	minimum = 7
	maximum = 68
Slowest packet = 18080
Flit latency average = 21.0868
	minimum = 7
	maximum = 68
Slowest flit = 18080
Fragmentation average = 0
	minimum = 0
	maximum = 0
Injected packet rate average = 0.051125
	minimum = 0.039 (at node 1)
	maximum = 0.061 (at node 0)
Accepted packet rate average = 0.051125
	minimum = 0.039 (at node 4)
	maximum = 0.061 (at node 0)
Injected flit rate average = 0.051125
	minimum = 0.039 (at node 1)
	maximum = 0.061 (at node 0)
Accepted flit rate average= 0.051125
	minimum = 0.039 (at node 4)
	maximum = 0.061 (at node 0)
Injected packet length average = 1
Accepted packet length average = 1
Total in-flight flits = 14 (14 measured)
latency change    = 0.0153443
throughput change = 0.0342298
Class 0:
Packet latency average = 21.1154
	minimum = 7
	maximum = 68
Network latency average = 21.1154
	minimum = 7
	maximum = 68
Slowest packet = 18080
Flit latency average = 21.2153
	minimum = 7
	maximum = 68
Slowest flit = 18080
Fragmentation average = 0
	minimum = 0
	maximum = 0
Injected packet rate average = 0.0490833
	minimum = 0.0393333 (at node 1)
	maximum = 0.0573333 (at node 10)
Accepted packet rate average = 0.0489583
	minimum = 0.0386667 (at node 4)
	maximum = 0.058 (at node 10)
Injected flit rate average = 0.0490833
	minimum = 0.0393333 (at node 1)
	maximum = 0.0573333 (at node 10)
Accepted flit rate average= 0.0489583
	minimum = 0.0386667 (at node 4)
	maximum = 0.058 (at node 10)
Injected packet length average = 1
Accepted packet length average = 1
Total in-flight flits = 17 (17 measured)
latency change    = 0.00829343
throughput change = 0.0442553
Class 0:
Packet latency average = 21.7305
	minimum = 7
	maximum = 119
Network latency average = 21.688
	minimum = 7
	maximum = 119
Slowest packet = 19124
Flit latency average = 21.7568
	minimum = 7
	maximum = 119
Slowest flit = 19124
Fragmentation average = 0
	minimum = 0
	maximum = 0
Injected packet rate average = 0.0499062
	minimum = 0.0395 (at node 1)
	maximum = 0.0585 (at node 10)
Accepted packet rate average = 0.0497187
	minimum = 0.0395 (at node 4)
	maximum = 0.059 (at node 10)
Injected flit rate average = 0.0499062
	minimum = 0.0395 (at node 1)
	maximum = 0.0585 (at node 10)
Accepted flit rate average= 0.0497187
	minimum = 0.0395 (at node 4)
	maximum = 0.059 (at node 10)
Injected packet length average = 1
Accepted packet length average = 1
Total in-flight flits = 20 (20 measured)
latency change    = 0.0283051
throughput change = 0.0152944
Draining all recorded packets ...
Draining remaining packets ...
Time taken is 3576 cycles
Class 0:
Packet latency average = 22.7789
	minimum = 7
	maximum = 92
Network latency average = 22.7789
	minimum = 7
	maximum = 92
Slowest packet = 19606
Flit latency average = 22.7789
	minimum = 7
	maximum = 92
Slowest flit = 19606
Fragmentation average = 0
	minimum = 0
	maximum = 0
Injected packet rate average = 0.050125
	minimum = 0.032 (at node 14)
	maximum = 0.064 (at node 13)
Accepted packet rate average = 0.048625
	minimum = 0.03 (at node 11)
	maximum = 0.06 (at node 1)
Injected flit rate average = 0.050125
	minimum = 0.032 (at node 14)
	maximum = 0.064 (at node 13)
Accepted flit rate average= 0.048625
	minimum = 0.03 (at node 11)
	maximum = 0.06 (at node 1)
Injected packet length average = 1
Accepted packet length average = 1
Total in-flight flits = 12 (0 measured)
latency change    = 1
throughput change = 1
Class 0:
Packet latency average = 23.3359
	minimum = 7
	maximum = 122
Network latency average = 23.3359
	minimum = 7
	maximum = 122
Slowest packet = 20052
Flit latency average = 23.3359
	minimum = 7
	maximum = 122
Slowest flit = 20052
Fragmentation average = 0
	minimum = 0
	maximum = 0
Injected packet rate average = 0.05025
	minimum = 0.033 (at node 15)
	maximum = 0.064 (at node 13)
Accepted packet rate average = 0.0489375
	minimum = 0.033 (at node 15)
	maximum = 0.06 (at node 7)
Injected flit rate average = 0.05025
	minimum = 0.033 (at node 15)
	maximum = 0.064 (at node 13)
Accepted flit rate average= 0.0489375
	minimum = 0.033 (at node 15)
	maximum = 0.06 (at node 7)
Injected packet length average = 1
Accepted packet length average = 1
Total in-flight flits = 21 (0 measured)
latency change    = 0.0238674
throughput change = 0.0063857
Class 0:
Packet latency average = 22.0759
	minimum = 7
	maximum = 63
Network latency average = 22.0732
	minimum = 7
	maximum = 63
Slowest packet = 20280
Flit latency average = 22.0732
	minimum = 7
	maximum = 63
Slowest flit = 20280
Fragmentation average = 0
	minimum = 0
	maximum = 0
Injected packet rate average = 0.0455
	minimum = 0.02 (at node 0)
	maximum = 0.062 (at node 11)
Accepted packet rate average = 0.046125
	minimum = 0.02 (at node 0)
	maximum = 0.064 (at node 14)
Injected flit rate average = 0.0455
	minimum = 0.02 (at node 0)
	maximum = 0.062 (at node 11)
Accepted flit rate average= 0.046125
	minimum = 0.02 (at node 0)
	maximum = 0.064 (at node 14)
Injected packet length average = 1
Accepted packet length average = 1
Total in-flight flits = 16 (0 measured)
latency change    = 0.0570762
throughput change = 0.0609756
Warmed up ...Time used is 1500 cycles
Class 0:
Packet latency average = 20.6405
	minimum = 7
	maximum = 55
Network latency average = 20.6405
	minimum = 7
	maximum = 55
Slowest packet = 20729
Flit latency average = 20.9171
	minimum = 7
	maximum = 55
Slowest flit = 20729
Fragmentation average = 0
	minimum = 0
	maximum = 0
Injected packet rate average = 0.0485
	minimum = 0.036 (at node 6)
	maximum = 0.064 (at node 7)
Accepted packet rate average = 0.04825
	minimum = 0.04 (at node 6)
	maximum = 0.07 (at node 13)
Injected flit rate average = 0.0485
	minimum = 0.036 (at node 6)
	maximum = 0.064 (at node 7)
Accepted flit rate average= 0.04825
	minimum = 0.04 (at node 6)
	maximum = 0.07 (at node 13)
Injected packet length average = 1
Accepted packet length average = 1
Total in-flight flits = 18 (18 measured)
latency change    = 0.0695399
throughput change = 0.0440415
Class 0:
Packet latency average = 21.2336
	minimum = 7
	maximum = 58
Network latency average = 21.2336
	minimum = 7
	maximum = 58
Slowest packet = 21212
Flit latency average = 21.3614
	minimum = 7
	maximum = 58
Slowest flit = 21212
Fragmentation average = 0
	minimum = 0
	maximum = 0
Injected packet rate average = 0.047375
	minimum = 0.035 (at node 6)
	maximum = 0.067 (at node 7)
Accepted packet rate average = 0.0475625
	minimum = 0.036 (at node 9)
	maximum = 0.071 (at node 13)
Injected flit rate average = 0.047375
	minimum = 0.035 (at node 6)
	maximum = 0.067 (at node 7)
Accepted flit rate average= 0.0475625
	minimum = 0.036 (at node 9)
	maximum = 0.071 (at node 13)
Injected packet length average = 1
Accepted packet length average = 1
Total in-flight flits = 13 (13 measured)
latency change    = 0.0279283
throughput change = 0.0144547
Class 0:
Packet latency average = 21.5795
	minimum = 7
	maximum = 85
Network latency average = 21.5795
	minimum = 7
	maximum = 85
Slowest packet = 21652
Flit latency average = 21.6586
	minimum = 7
	maximum = 85
Slowest flit = 21652
Fragmentation average = 0
	minimum = 0
	maximum = 0
Injected packet rate average = 0.0483333
	minimum = 0.0406667 (at node 6)
	maximum = 0.06 (at node 7)
Accepted packet rate average = 0.0483333
	minimum = 0.0413333 (at node 5)
	maximum = 0.062 (at node 13)
Injected flit rate average = 0.0483333
	minimum = 0.0406667 (at node 6)
	maximum = 0.06 (at node 7)
Accepted flit rate average= 0.0483333
	minimum = 0.0413333 (at node 5)
	maximum = 0.062 (at node 13)
Injected packet length average = 1
Accepted packet length average = 1
Total in-flight flits = 16 (16 measured)
latency change    = 0.0160332
throughput change = 0.0159483
Class 0:
Packet latency average = 21.6386
	minimum = 7
	maximum = 95
Network latency average = 21.6386
	minimum = 7
	maximum = 95
Slowest packet = 21921
Flit latency average = 21.6968
	minimum = 7
	maximum = 95
Slowest flit = 21921
Fragmentation average = 0
	minimum = 0
	maximum = 0
Injected packet rate average = 0.0488125
	minimum = 0.04 (at node 9)
	maximum = 0.056 (at node 12)
Accepted packet rate average = 0.04875
	minimum = 0.0405 (at node 6)
	maximum = 0.056 (at node 13)
Injected flit rate average = 0.0488125
	minimum = 0.04 (at node 9)
	maximum = 0.056 (at node 12)
Accepted flit rate average= 0.04875
	minimum = 0.0405 (at node 6)
	maximum = 0.056 (at node 13)
Injected packet length average = 1
Accepted packet length average = 1
Total in-flight flits = 18 (18 measured)
latency change    = 0.00272918
throughput change = 0.00854701
Draining all recorded packets ...
Draining remaining packets ...
Time taken is 3573 cycles
Class 0:
Packet latency average = 24.9895
	minimum = 7
	maximum = 105
Network latency average = 24.9816
	minimum = 7
	maximum = 105
Slowest packet = 22307
Flit latency average = 24.9816
	minimum = 7
	maximum = 105
Slowest flit = 22307
Fragmentation average = 0
	minimum = 0
	maximum = 0
Injected packet rate average = 0.049875
	minimum = 0.026 (at node 11)
	maximum = 0.074 (at node 9)
Accepted packet rate average = 0.0475
	minimum = 0.026 (at node 14)
	maximum = 0.07 (at node 6)
Injected flit rate average = 0.049875
	minimum = 0.026 (at node 11)
	maximum = 0.074 (at node 9)
Accepted flit rate average= 0.0475
	minimum = 0.026 (at node 14)
	maximum = 0.07 (at node 6)
Injected packet length average = 1
Accepted packet length average = 1
Total in-flight flits = 19 (0 measured)
latency change    = 1
throughput change = 1
Class 0:
Packet latency average = 22.5774
	minimum = 7
	maximum = 105
Network latency average = 22.5736
	minimum = 7
	maximum = 105
Slowest packet = 22307
Flit latency average = 22.5736
	minimum = 7
	maximum = 105
Slowest flit = 22307
Fragmentation average = 0
	minimum = 0
	maximum = 0
Injected packet rate average = 0.0504375
	minimum = 0.035 (at node 2)
	maximum = 0.069 (at node 9)
Accepted packet rate average = 0.0496875
	minimum = 0.035 (at node 8)
	maximum = 0.068 (at node 6)
Injected flit rate average = 0.0504375
	minimum = 0.035 (at node 2)
	maximum = 0.069 (at node 9)
Accepted flit rate average= 0.0496875
	minimum = 0.035 (at node 8)
	maximum = 0.068 (at node 6)
Injected packet length average = 1
Accepted packet length average = 1
Total in-flight flits = 12 (0 measured)
latency change    = 0.106838
throughput change = 0.0440252
Class 0:
Packet latency average = 20.2356
	minimum = 7
	maximum = 48
Network latency average = 20.2356
	minimum = 7
	maximum = 48
Slowest packet = 23072
Flit latency average = 20.2356
	minimum = 7
	maximum = 48
Slowest flit = 23072
Fragmentation average = 0
	minimum = 0
	maximum = 0
Injected packet rate average = 0.048375
	minimum = 0.034 (at node 7)
	maximum = 0.068 (at node 5)
Accepted packet rate average = 0.04775
	minimum = 0.028 (at node 13)
	maximum = 0.068 (at node 5)
Injected flit rate average = 0.048375
	minimum = 0.034 (at node 7)
	maximum = 0.068 (at node 5)
Accepted flit rate average= 0.04775
	minimum = 0.028 (at node 13)
	maximum = 0.068 (at node 5)
Injected packet length average = 1
Accepted packet length average = 1
Total in-flight flits = 17 (0 measured)
latency change    = 0.115725
throughput change = 0.0405759
Warmed up ...Time used is 1500 cycles
Class 0:
Packet latency average = 20.9249
	minimum = 7
	maximum = 64
Network latency average = 20.9249
	minimum = 7
	maximum = 64
Slowest packet = 23560
Flit latency average = 21.0282
	minimum = 7
	maximum = 64
Slowest flit = 23560
Fragmentation average = 0
	minimum = 0
	maximum = 0
Injected packet rate average = 0.048375
	minimum = 0.038 (at node 7)
	maximum = 0.066 (at node 1)
Accepted packet rate average = 0.04875
	minimum = 0.04 (at node 0)
	maximum = 0.066 (at node 4)
Injected flit rate average = 0.048375
	minimum = 0.038 (at node 7)
	maximum = 0.066 (at node 1)
Accepted flit rate average= 0.04875
	minimum = 0.04 (at node 0)
	maximum = 0.066 (at node 4)
Injected packet length average = 1
Accepted packet length average = 1
Total in-flight flits = 14 (14 measured)
latency change    = 0.032943
throughput change = 0.0205128
Class 0:
Packet latency average = 20.6626
	minimum = 7
	maximum = 72
Network latency average = 20.6626
	minimum = 7
	maximum = 72
Slowest packet = 24107
Flit latency average = 20.7214
	minimum = 7
	maximum = 72
Slowest flit = 24107
Fragmentation average = 0
	minimum = 0
	maximum = 0
Injected packet rate average = 0.047875
	minimum = 0.037 (at node 6)
	maximum = 0.057 (at node 1)
Accepted packet rate average = 0.0475625
	minimum = 0.037 (at node 9)
	maximum = 0.057 (at node 4)
Injected flit rate average = 0.047875
	minimum = 0.037 (at node 6)
	maximum = 0.057 (at node 1)
Accepted flit rate average= 0.0475625
	minimum = 0.037 (at node 9)
	maximum = 0.057 (at node 4)
Injected packet length average = 1
Accepted packet length average = 1
Total in-flight flits = 22 (22 measured)
latency change    = 0.0126943
throughput change = 0.0249671
Class 0:
Packet latency average = 20.6846
	minimum = 7
	maximum = 72
Network latency average = 20.6846
	minimum = 7
	maximum = 72
Slowest packet = 24107
Flit latency average = 20.7226
	minimum = 7
	maximum = 72
Slowest flit = 24107
Fragmentation average = 0
	minimum = 0
	maximum = 0
Injected packet rate average = 0.048625
	minimum = 0.0386667 (at node 9)
	maximum = 0.058 (at node 14)
Accepted packet rate average = 0.0486667
	minimum = 0.0406667 (at node 6)
	maximum = 0.0586667 (at node 11)
Injected flit rate average = 0.048625
	minimum = 0.0386667 (at node 9)
	maximum = 0.058 (at node 14)
Accepted flit rate average= 0.0486667
	minimum = 0.0406667 (at node 6)
	maximum = 0.0586667 (at node 11)
Injected packet length average = 1
Accepted packet length average = 1
Total in-flight flits = 16 (16 measured)
latency change    = 0.001063
throughput change = 0.0226884
Draining all recorded packets ...
Draining remaining packets ...
Time taken is 3068 cycles
Class 0:
Packet latency average = 20.7826
	minimum = 7
	maximum = 57
Network latency average = 20.7749
	minimum = 7
	maximum = 57
Slowest packet = 24921
Flit latency average = 20.7749
	minimum = 7
	maximum = 57
Slowest flit = 24921
Fragmentation average = 0
	minimum = 0
	maximum = 0
Injected packet rate average = 0.051
	minimum = 0.038 (at node 3)
	maximum = 0.066 (at node 14)
Accepted packet rate average = 0.048875
	minimum = 0.034 (at node 12)
	maximum = 0.066 (at node 11)
Injected flit rate average = 0.051
	minimum = 0.038 (at node 3)
	maximum = 0.066 (at node 14)
Accepted flit rate average= 0.048875
	minimum = 0.034 (at node 12)
	maximum = 0.066 (at node 11)
Injected packet length average = 1
Accepted packet length average = 1
Total in-flight flits = 17 (0 measured)
latency change    = 1
throughput change = 1
Class 0:
Packet latency average = 21.9139
	minimum = 7
	maximum = 81
Network latency average = 21.9103
	minimum = 7
	maximum = 81
Slowest packet = 25187
Flit latency average = 21.9103
	minimum = 7
	maximum = 81
Slowest flit = 25187
Fragmentation average = 0
	minimum = 0
	maximum = 0
Injected packet rate average = 0.0521875
	minimum = 0.044 (at node 5)
	maximum = 0.062 (at node 14)
Accepted packet rate average = 0.0515625
	minimum = 0.044 (at node 5)
	maximum = 0.06 (at node 11)
Injected flit rate average = 0.0521875
	minimum = 0.044 (at node 5)
	maximum = 0.062 (at node 14)
Accepted flit rate average= 0.0515625
	minimum = 0.044 (at node 5)
	maximum = 0.06 (at node 11)
Injected packet length average = 1
Accepted packet length average = 1
Total in-flight flits = 10 (0 measured)
latency change    = 0.0516261
throughput change = 0.0521212
Class 0:
Packet latency average = 19.7672
	minimum = 7
	maximum = 58
Network latency average = 19.7672
	minimum = 7
	maximum = 58
Slowest packet = 25815
Flit latency average = 19.7672
	minimum = 7
	maximum = 58
Slowest flit = 25815
Fragmentation average = 0
	minimum = 0
	maximum = 0
Injected packet rate average = 0.05125
	minimum = 0.034 (at node 11)
	maximum = 0.068 (at node 6)
Accepted packet rate average = 0.051
	minimum = 0.034 (at node 14)
	maximum = 0.068 (at node 9)
Injected flit rate average = 0.05125
	minimum = 0.034 (at node 11)
	maximum = 0.068 (at node 6)
Accepted flit rate average= 0.051
	minimum = 0.034 (at node 14)
	maximum = 0.068 (at node 9)
Injected packet length average = 1
Accepted packet length average = 1
Total in-flight flits = 12 (0 measured)
latency change    = 0.108604
throughput change = 0.0110294
Warmed up ...Time used is 1500 cycles
Class 0:
Packet latency average = 20.3581
	minimum = 7
	maximum = 52
Network latency average = 20.3581
	minimum = 7
	maximum = 52
Slowest packet = 26083
Flit latency average = 20.7146
	minimum = 7
	maximum = 52
Slowest flit = 26083
Fragmentation average = 0
	minimum = 0
	maximum = 0
Injected packet rate average = 0.0515
	minimum = 0.034 (at node 3)
	maximum = 0.08 (at node 2)
Accepted packet rate average = 0.050375
	minimum = 0.038 (at node 3)
	maximum = 0.078 (at node 14)
Injected flit rate average = 0.0515
	minimum = 0.034 (at node 3)
	maximum = 0.08 (at node 2)
Accepted flit rate average= 0.050375
	minimum = 0.038 (at node 3)
	maximum = 0.078 (at node 14)
Injected packet length average = 1
Accepted packet length average = 1
Total in-flight flits = 21 (21 measured)
latency change    = 0.0290253
throughput change = 0.0124069
Class 0:
Packet latency average = 20.9583
	minimum = 7
	maximum = 68
Network latency average = 20.9583
	minimum = 7
	maximum = 68
Slowest packet = 26410
Flit latency average = 21.1283
	minimum = 7
	maximum = 68
Slowest flit = 26410
Fragmentation average = 0
	minimum = 0
	maximum = 0
Injected packet rate average = 0.0500625
	minimum = 0.036 (at node 3)
	maximum = 0.067 (at node 2)
Accepted packet rate average = 0.0501875
	minimum = 0.037 (at node 6)
	maximum = 0.068 (at node 8)
Injected flit rate average = 0.0500625
	minimum = 0.036 (at node 3)
	maximum = 0.067 (at node 2)
Accepted flit rate average= 0.0501875
	minimum = 0.037 (at node 6)
	maximum = 0.068 (at node 8)
Injected packet length average = 1
Accepted packet length average = 1
Total in-flight flits = 10 (10 measured)
latency change    = 0.028639
throughput change = 0.00373599
Class 0:
Packet latency average = 20.9614
	minimum = 7
	maximum = 71
Network latency average = 20.9614
	minimum = 7
	maximum = 71
Slowest packet = 26814
Flit latency average = 21.0772
	minimum = 7
	maximum = 71
Slowest flit = 26814
Fragmentation average = 0
	minimum = 0
	maximum = 0
Injected packet rate average = 0.0493333
	minimum = 0.04 (at node 3)
	maximum = 0.0633333 (at node 2)
Accepted packet rate average = 0.049125
	minimum = 0.0406667 (at node 1)
	maximum = 0.0626667 (at node 8)
Injected flit rate average = 0.0493333
	minimum = 0.04 (at node 3)
	maximum = 0.0633333 (at node 2)
Accepted flit rate average= 0.049125
	minimum = 0.0406667 (at node 1)
	maximum = 0.0626667 (at node 8)
Injected packet length average = 1
Accepted packet length average = 1
Total in-flight flits = 17 (17 measured)
latency change    = 0.000150702
throughput change = 0.0216285
Draining all recorded packets ...
Draining remaining packets ...
Time taken is 3096 cycles
Class 0:
Packet latency average = 22.3617
	minimum = 7
	maximum = 85
Network latency average = 22.3617
	minimum = 7
	maximum = 85
Slowest packet = 27183
Flit latency average = 22.3617
	minimum = 7
	maximum = 85
Slowest flit = 27183
Fragmentation average = 0
	minimum = 0
	maximum = 0
Injected packet rate average = 0.049
	minimum = 0.036 (at node 4)
	maximum = 0.062 (at node 3)
Accepted packet rate average = 0.047
	minimum = 0.036 (at node 1)
	maximum = 0.058 (at node 6)
Injected flit rate average = 0.049
	minimum = 0.036 (at node 4)
	maximum = 0.062 (at node 3)
Accepted flit rate average= 0.047
	minimum = 0.036 (at node 1)
	maximum = 0.058 (at node 6)
Injected packet length average = 1
Accepted packet length average = 1
Total in-flight flits = 16 (0 measured)
latency change    = 1
throughput change = 1
Class 0:
Packet latency average = 21.0411
	minimum = 7
	maximum = 85
Network latency average = 21.0411
	minimum = 7
	maximum = 85
Slowest packet = 27183
Flit latency average = 21.0411
	minimum = 7
	maximum = 85
Slowest flit = 27183
Fragmentation average = 0
	minimum = 0
	maximum = 0
Injected packet rate average = 0.049875
	minimum = 0.039 (at node 13)
	maximum = 0.062 (at node 9)
Accepted packet rate average = 0.0486875
	minimum = 0.039 (at node 7)
	maximum = 0.061 (at node 6)
Injected flit rate average = 0.049875
	minimum = 0.039 (at node 13)
	maximum = 0.062 (at node 9)
Accepted flit rate average= 0.0486875
	minimum = 0.039 (at node 7)
	maximum = 0.061 (at node 6)
Injected packet length average = 1
Accepted packet length average = 1
Total in-flight flits = 19 (0 measured)
latency change    = 0.0627641
throughput change = 0.0346598
Class 0:
Packet latency average = 23.9207
	minimum = 7
	maximum = 125
Network latency average = 23.8974
	minimum = 7
	maximum = 125
Slowest packet = 28088
Flit latency average = 23.8974
	minimum = 7
	maximum = 125
Slowest flit = 28088
Fragmentation average = 0
	minimum = 0
	maximum = 0
Injected packet rate average = 0.05475
	minimum = 0.034 (at node 3)
	maximum = 0.072 (at node 8)
Accepted packet rate average = 0.053625
	minimum = 0.038 (at node 12)
	maximum = 0.072 (at node 3)
Injected flit rate average = 0.05475
	minimum = 0.034 (at node 3)
	maximum = 0.072 (at node 8)
Accepted flit rate average= 0.053625
	minimum = 0.038 (at node 12)
	maximum = 0.072 (at node 3)
Injected packet length average = 1
Accepted packet length average = 1
Total in-flight flits = 28 (0 measured)
latency change    = 0.120384
throughput change = 0.0920746
Warmed up ...Time used is 1500 cycles
Class 0:
Packet latency average = 23.1484
	minimum = 7
	maximum = 93
Network latency average = 22.8901
	minimum = 7
	maximum = 87
Slowest packet = 28340
Flit latency average = 24.7143
	minimum = 7
	maximum = 126
Slowest flit = 28317
Fragmentation average = 0
	minimum = 0
	maximum = 0
Injected packet rate average = 0.0475
	minimum = 0.032 (at node 13)
	maximum = 0.078 (at node 15)
Accepted packet rate average = 0.049
	minimum = 0.036 (at node 14)
	maximum = 0.078 (at node 15)
Injected flit rate average = 0.0475
	minimum = 0.032 (at node 13)
	maximum = 0.078 (at node 15)
Accepted flit rate average= 0.049
	minimum = 0.036 (at node 14)
	maximum = 0.078 (at node 15)
Injected packet length average = 1
Accepted packet length average = 1
Total in-flight flits = 16 (16 measured)
latency change    = 0.0333671
throughput change = 0.0943878
Class 0:
Packet latency average = 23.2981
	minimum = 7
	maximum = 93
Network latency average = 23.1725
	minimum = 7
	maximum = 87
Slowest packet = 28340
Flit latency average = 24.0838
	minimum = 7
	maximum = 126
Slowest flit = 28317
Fragmentation average = 0
	minimum = 0
	maximum = 0
Injected packet rate average = 0.0479375
	minimum = 0.036 (at node 10)
	maximum = 0.064 (at node 9)
Accepted packet rate average = 0.0485
	minimum = 0.036 (at node 10)
	maximum = 0.065 (at node 6)
Injected flit rate average = 0.0479375
	minimum = 0.036 (at node 10)
	maximum = 0.064 (at node 9)
Accepted flit rate average= 0.0485
	minimum = 0.036 (at node 10)
	maximum = 0.065 (at node 6)
Injected packet length average = 1
Accepted packet length average = 1
Total in-flight flits = 19 (19 measured)
latency change    = 0.0064287
throughput change = 0.0103093
Class 0:
Packet latency average = 23.8604
	minimum = 7
	maximum = 121
Network latency average = 23.7779
	minimum = 7
	maximum = 121
Slowest packet = 29067
Flit latency average = 24.3693
	minimum = 7
	maximum = 126
Slowest flit = 28317
Fragmentation average = 0
	minimum = 0
	maximum = 0
Injected packet rate average = 0.0482917
	minimum = 0.036 (at node 10)
	maximum = 0.0593333 (at node 9)
Accepted packet rate average = 0.048625
	minimum = 0.036 (at node 10)
	maximum = 0.062 (at node 6)
Injected flit rate average = 0.0482917
	minimum = 0.036 (at node 10)
	maximum = 0.0593333 (at node 9)
Accepted flit rate average= 0.048625
	minimum = 0.036 (at node 10)
	maximum = 0.062 (at node 6)
Injected packet length average = 1
Accepted packet length average = 1
Total in-flight flits = 20 (20 measured)
latency change    = 0.0235652
throughput change = 0.00257069
Class 0:
Packet latency average = 23.8178
	minimum = 7
	maximum = 121
Network latency average = 23.7571
	minimum = 7
	maximum = 121
Slowest packet = 29067
Flit latency average = 24.1954
	minimum = 7
	maximum = 126
Slowest flit = 28317
Fragmentation average = 0
	minimum = 0
	maximum = 0
Injected packet rate average = 0.048875
	minimum = 0.036 (at node 10)
	maximum = 0.057 (at node 8)
Accepted packet rate average = 0.04925
	minimum = 0.036 (at node 10)
	maximum = 0.058 (at node 2)
Injected flit rate average = 0.048875
	minimum = 0.036 (at node 10)
	maximum = 0.057 (at node 8)
Accepted flit rate average= 0.04925
	minimum = 0.036 (at node 10)
	maximum = 0.058 (at node 2)
Injected packet length average = 1
Accepted packet length average = 1
Total in-flight flits = 16 (16 measured)
latency change    = 0.0017875
throughput change = 0.0126904
Draining all recorded packets ...
Draining remaining packets ...
Time taken is 3567 cycles
Class 0:
Packet latency average = 21.3404
	minimum = 7
	maximum = 60
Network latency average = 21.3404
	minimum = 7
	maximum = 60
Slowest packet = 30079
Flit latency average = 21.3404
	minimum = 7
	maximum = 60
Slowest flit = 30079
Fragmentation average = 0
	minimum = 0
	maximum = 0
Injected packet rate average = 0.049625
	minimum = 0.042 (at node 6)
	maximum = 0.06 (at node 3)
Accepted packet rate average = 0.047375
	minimum = 0.04 (at node 1)
	maximum = 0.054 (at node 2)
Injected flit rate average = 0.049625
	minimum = 0.042 (at node 6)
	maximum = 0.06 (at node 3)
Accepted flit rate average= 0.047375
	minimum = 0.04 (at node 1)
	maximum = 0.054 (at node 2)
Injected packet length average = 1
Accepted packet length average = 1
Total in-flight flits = 18 (0 measured)
latency change    = 1
throughput change = 1
Class 0:
Packet latency average = 21.9901
	minimum = 7
	maximum = 106
Network latency average = 21.9901
	minimum = 7
	maximum = 106
Slowest packet = 30556
Flit latency average = 21.9901
	minimum = 7
	maximum = 106
Slowest flit = 30556
Fragmentation average = 0
	minimum = 0
	maximum = 0
Injected packet rate average = 0.0516875
	minimum = 0.038 (at node 6)
	maximum = 0.062 (at node 5)
Accepted packet rate average = 0.050375
	minimum = 0.037 (at node 9)
	maximum = 0.062 (at node 5)
Injected flit rate average = 0.0516875
	minimum = 0.038 (at node 6)
	maximum = 0.062 (at node 5)
Accepted flit rate average= 0.050375
	minimum = 0.037 (at node 9)
	maximum = 0.062 (at node 5)
Injected packet length average = 1
Accepted packet length average = 1
Total in-flight flits = 21 (0 measured)
latency change    = 0.0295454
throughput change = 0.0595533
Class 0:
Packet latency average = 21.9474
	minimum = 7
	maximum = 69
Network latency average = 21.9474
	minimum = 7
	maximum = 69
Slowest packet = 30877
Flit latency average = 21.9474
	minimum = 7
	maximum = 69
Slowest flit = 30877
Fragmentation average = 0
	minimum = 0
	maximum = 0
Injected packet rate average = 0.051625
	minimum = 0.044 (at node 1)
	maximum = 0.066 (at node 7)
Accepted packet rate average = 0.05225
	minimum = 0.042 (at node 3)
	maximum = 0.066 (at node 13)
Injected flit rate average = 0.051625
	minimum = 0.044 (at node 1)
	maximum = 0.066 (at node 7)
Accepted flit rate average= 0.05225
	minimum = 0.042 (at node 3)
	maximum = 0.066 (at node 13)
Injected packet length average = 1
Accepted packet length average = 1
Total in-flight flits = 16 (0 measured)
latency change    = 0.00194584
throughput change = 0.0358852
Warmed up ...Time used is 1500 cycles
Class 0:
Packet latency average = 20.3989
	minimum = 7
	maximum = 52
Network latency average = 20.3989
	minimum = 7
	maximum = 52
Slowest packet = 31189
Flit latency average = 21.0424
	minimum = 7
	maximum = 70
Slowest flit = 31133
Fragmentation average = 0
	minimum = 0
	maximum = 0
Injected packet rate average = 0.0475
	minimum = 0.026 (at node 2)
	maximum = 0.07 (at node 11)
Accepted packet rate average = 0.047125
	minimum = 0.024 (at node 8)
	maximum = 0.068 (at node 14)
Injected flit rate average = 0.0475
	minimum = 0.026 (at node 2)
	maximum = 0.07 (at node 11)
Accepted flit rate average= 0.047125
	minimum = 0.024 (at node 8)
	maximum = 0.068 (at node 14)
Injected packet length average = 1
Accepted packet length average = 1
Total in-flight flits = 19 (19 measured)
latency change    = 0.0759098
throughput change = 0.108753
Class 0:
Packet latency average = 21.7751
	minimum = 7
	maximum = 101
Network latency average = 21.7724
	minimum = 7
	maximum = 101
Slowest packet = 31558
Flit latency average = 22.0616
	minimum = 7
	maximum = 101
Slowest flit = 31558
Fragmentation average = 0
	minimum = 0
	maximum = 0
Injected packet rate average = 0.0484375
	minimum = 0.029 (at node 2)
	maximum = 0.063 (at node 11)
Accepted packet rate average = 0.0476875
	minimum = 0.029 (at node 8)
	maximum = 0.064 (at node 14)
Injected flit rate average = 0.0484375
	minimum = 0.029 (at node 2)
	maximum = 0.063 (at node 11)
Accepted flit rate average= 0.0476875
	minimum = 0.029 (at node 8)
	maximum = 0.064 (at node 14)
Injected packet length average = 1
Accepted packet length average = 1
Total in-flight flits = 28 (28 measured)
latency change    = 0.063201
throughput change = 0.0117955
Class 0:
Packet latency average = 21.7535
	minimum = 7
	maximum = 101
Network latency average = 21.7518
	minimum = 7
	maximum = 101
Slowest packet = 31558
Flit latency average = 21.9429
	minimum = 7
	maximum = 101
Slowest flit = 31558
Fragmentation average = 0
	minimum = 0
	maximum = 0
Injected packet rate average = 0.0483333
	minimum = 0.04 (at node 2)
	maximum = 0.0613333 (at node 14)
Accepted packet rate average = 0.0481667
	minimum = 0.0393333 (at node 8)
	maximum = 0.0606667 (at node 11)
Injected flit rate average = 0.0483333
	minimum = 0.04 (at node 2)
	maximum = 0.0613333 (at node 14)
Accepted flit rate average= 0.0481667
	minimum = 0.0393333 (at node 8)
	maximum = 0.0606667 (at node 11)
Injected packet length average = 1
Accepted packet length average = 1
Total in-flight flits = 20 (20 measured)
latency change    = 0.000992558
throughput change = 0.0099481
Class 0:
Packet latency average = 21.5333
	minimum = 7
	maximum = 101
Network latency average = 21.5321
	minimum = 7
	maximum = 101
Slowest packet = 31558
Flit latency average = 21.6745
	minimum = 7
	maximum = 101
Slowest flit = 31558
Fragmentation average = 0
	minimum = 0
	maximum = 0
Injected packet rate average = 0.0494062
	minimum = 0.0425 (at node 15)
	maximum = 0.057 (at node 14)
Accepted packet rate average = 0.04925
	minimum = 0.043 (at node 6)
	maximum = 0.0565 (at node 11)
Injected flit rate average = 0.0494062
	minimum = 0.0425 (at node 15)
	maximum = 0.057 (at node 14)
Accepted flit rate average= 0.04925
	minimum = 0.043 (at node 6)
	maximum = 0.0565 (at node 11)
Injected packet length average = 1
Accepted packet length average = 1
Total in-flight flits = 21 (21 measured)
latency change    = 0.0102249
throughput change = 0.0219966
Class 0:
Packet latency average = 21.5826
	minimum = 7
	maximum = 101
Network latency average = 21.5816
	minimum = 7
	maximum = 101
Slowest packet = 31558
Flit latency average = 21.6962
	minimum = 7
	maximum = 101
Slowest flit = 31558
Fragmentation average = 0
	minimum = 0
	maximum = 0
Injected packet rate average = 0.048875
	minimum = 0.0384 (at node 15)
	maximum = 0.0544 (at node 7)
Accepted packet rate average = 0.0488
	minimum = 0.0388 (at node 15)
	maximum = 0.0552 (at node 13)
Injected flit rate average = 0.048875
	minimum = 0.0384 (at node 15)
	maximum = 0.0544 (at node 7)
Accepted flit rate average= 0.0488
	minimum = 0.0388 (at node 15)
	maximum = 0.0552 (at node 13)
Injected packet length average = 1
Accepted packet length average = 1
Total in-flight flits = 19 (19 measured)
latency change    = 0.00228477
throughput change = 0.00922131
Draining all recorded packets ...
Draining remaining packets ...
Time taken is 4073 cycles
Class 0:
Packet latency average = 22.7904
	minimum = 7
	maximum = 75
Network latency average = 22.7904
	minimum = 7
	maximum = 75
Slowest packet = 33257
Flit latency average = 22.7904
	minimum = 7
	maximum = 75
Slowest flit = 33257
Fragmentation average = 0
	minimum = 0
	maximum = 0
Injected packet rate average = 0.052125
	minimum = 0.038 (at node 1)
	maximum = 0.064 (at node 13)
Accepted packet rate average = 0.0495
	minimum = 0.038 (at node 4)
	maximum = 0.06 (at node 3)
Injected flit rate average = 0.052125
	minimum = 0.038 (at node 1)
	maximum = 0.064 (at node 13)
Accepted flit rate average= 0.0495
	minimum = 0.038 (at node 4)
	maximum = 0.06 (at node 3)
Injected packet length average = 1
Accepted packet length average = 1
Total in-flight flits = 21 (0 measured)
latency change    = 1
throughput change = 1
Class 0:
Packet latency average = 26.6809
	minimum = 7
	maximum = 156
Network latency average = 26.1696
	minimum = 7
	maximum = 153
Slowest packet = 33784
Flit latency average = 26.1696
	minimum = 7
	maximum = 153
Slowest flit = 33784
Fragmentation average = 0
	minimum = 0
	maximum = 0
Injected packet rate average = 0.0511875
	minimum = 0.034 (at node 1)
	maximum = 0.073 (at node 13)
Accepted packet rate average = 0.04975
	minimum = 0.033 (at node 4)
	maximum = 0.067 (at node 7)
Injected flit rate average = 0.0511875
	minimum = 0.034 (at node 1)
	maximum = 0.073 (at node 13)
Accepted flit rate average= 0.04975
	minimum = 0.033 (at node 4)
	maximum = 0.067 (at node 7)
Injected packet length average = 1
Accepted packet length average = 1
Total in-flight flits = 23 (0 measured)
latency change    = 0.145816
throughput change = 0.00502513
Class 0:
Packet latency average = 23.762
	minimum = 7
	maximum = 143
Network latency average = 23.4645
	minimum = 7
	maximum = 90
Slowest packet = 33921
Flit latency average = 23.4645
	minimum = 7
	maximum = 90
Slowest flit = 33937
Fragmentation average = 0
	minimum = 0
	maximum = 0
Injected packet rate average = 0.053625
	minimum = 0.042 (at node 1)
	maximum = 0.074 (at node 15)
Accepted packet rate average = 0.054625
	minimum = 0.04 (at node 14)
	maximum = 0.074 (at node 15)
Injected flit rate average = 0.053625
	minimum = 0.042 (at node 1)
	maximum = 0.074 (at node 15)
Accepted flit rate average= 0.054625
	minimum = 0.04 (at node 14)
	maximum = 0.074 (at node 15)
Injected packet length average = 1
Accepted packet length average = 1
Total in-flight flits = 15 (0 measured)
latency change    = 0.122839
throughput change = 0.0892449
Warmed up ...Time used is 1500 cycles
Class 0:
Packet latency average = 20.2979
	minimum = 7
	maximum = 67
Network latency average = 20.2979
	minimum = 7
	maximum = 67
Slowest packet = 34660
Flit latency average = 20.394
	minimum = 7
	maximum = 67
Slowest flit = 34660
Fragmentation average = 0
	minimum = 0
	maximum = 0
Injected packet rate average = 0.050125
	minimum = 0.034 (at node 12)
	maximum = 0.072 (at node 6)
Accepted packet rate average = 0.050125
	minimum = 0.036 (at node 3)
	maximum = 0.07 (at node 9)
Injected flit rate average = 0.050125
	minimum = 0.034 (at node 12)
	maximum = 0.072 (at node 6)
Accepted flit rate average= 0.050125
	minimum = 0.036 (at node 3)
	maximum = 0.07 (at node 9)
Injected packet length average = 1
Accepted packet length average = 1
Total in-flight flits = 15 (15 measured)
latency change    = 0.170662
throughput change = 0.0897756
Class 0:
Packet latency average = 21.0771
	minimum = 7
	maximum = 91
Network latency average = 21.0771
	minimum = 7
	maximum = 91
Slowest packet = 34871
Flit latency average = 21.1104
	minimum = 7
	maximum = 91
Slowest flit = 34871
Fragmentation average = 0
	minimum = 0
	maximum = 0
Injected packet rate average = 0.0503125
	minimum = 0.038 (at node 10)
	maximum = 0.064 (at node 14)
Accepted packet rate average = 0.050375
	minimum = 0.037 (at node 10)
	maximum = 0.064 (at node 11)
Injected flit rate average = 0.0503125
	minimum = 0.038 (at node 10)
	maximum = 0.064 (at node 14)
Accepted flit rate average= 0.050375
	minimum = 0.037 (at node 10)
	maximum = 0.064 (at node 11)
Injected packet length average = 1
Accepted packet length average = 1
Total in-flight flits = 14 (14 measured)
latency change    = 0.0369685
throughput change = 0.00496278
Class 0:
Packet latency average = 20.8205
	minimum = 7
	maximum = 91
Network latency average = 20.8205
	minimum = 7
	maximum = 91
Slowest packet = 34871
Flit latency average = 20.8458
	minimum = 7
	maximum = 91
Slowest flit = 34871
Fragmentation average = 0
	minimum = 0
	maximum = 0
Injected packet rate average = 0.05075
	minimum = 0.0413333 (at node 7)
	maximum = 0.0593333 (at node 14)
Accepted packet rate average = 0.0505417
	minimum = 0.0386667 (at node 3)
	maximum = 0.06 (at node 11)
Injected flit rate average = 0.05075
	minimum = 0.0413333 (at node 7)
	maximum = 0.0593333 (at node 14)
Accepted flit rate average= 0.0505417
	minimum = 0.0386667 (at node 3)
	maximum = 0.06 (at node 11)
Injected packet length average = 1
Accepted packet length average = 1
Total in-flight flits = 20 (20 measured)
latency change    = 0.0123236
throughput change = 0.00329761
Class 0:
Packet latency average = 21.3021
	minimum = 7
	maximum = 91
Network latency average = 21.3021
	minimum = 7
	maximum = 91
Slowest packet = 34871
Flit latency average = 21.3167
	minimum = 7
	maximum = 91
Slowest flit = 34871
Fragmentation average = 0
	minimum = 0
	maximum = 0
Injected packet rate average = 0.0501562
	minimum = 0.04 (at node 7)
	maximum = 0.056 (at node 14)
Accepted packet rate average = 0.0502187
	minimum = 0.0415 (at node 13)
	maximum = 0.0565 (at node 11)
Injected flit rate average = 0.0501562
	minimum = 0.04 (at node 7)
	maximum = 0.056 (at node 14)
Accepted flit rate average= 0.0502187
	minimum = 0.0415 (at node 13)
	maximum = 0.0565 (at node 11)
Injected packet length average = 1
Accepted packet length average = 1
Total in-flight flits = 13 (13 measured)
latency change    = 0.0226081
throughput change = 0.0064302
Draining all recorded packets ...
Draining remaining packets ...
Time taken is 3568 cycles
Class 0:
Packet latency average = 19.8175
	minimum = 7
	maximum = 57
Network latency average = 19.8175
	minimum = 7
	maximum = 57
Slowest packet = 36114
Flit latency average = 19.8175
	minimum = 7
	maximum = 57
Slowest flit = 36114
Fragmentation average = 0
	minimum = 0
	maximum = 0
Injected packet rate average = 0.0495
	minimum = 0.032 (at node 6)
	maximum = 0.064 (at node 0)
Accepted packet rate average = 0.04725
	minimum = 0.03 (at node 9)
	maximum = 0.06 (at node 0)
Injected flit rate average = 0.0495
	minimum = 0.032 (at node 6)
	maximum = 0.064 (at node 0)
Accepted flit rate average= 0.04725
	minimum = 0.03 (at node 9)
	maximum = 0.06 (at node 0)
Injected packet length average = 1
Accepted packet length average = 1
Total in-flight flits = 18 (0 measured)
latency change    = 1
throughput change = 1
Class 0:
Packet latency average = 22.0999
	minimum = 7
	maximum = 108
Network latency average = 22.0925
	minimum = 7
	maximum = 108
Slowest packet = 36693
Flit latency average = 22.0925
	minimum = 7
	maximum = 108
Slowest flit = 36693
Fragmentation average = 0
	minimum = 0
	maximum = 0
Injected packet rate average = 0.0515625
	minimum = 0.037 (at node 6)
	maximum = 0.063 (at node 7)
Accepted packet rate average = 0.0506875
	minimum = 0.037 (at node 9)
	maximum = 0.061 (at node 13)
Injected flit rate average = 0.0515625
	minimum = 0.037 (at node 6)
	maximum = 0.063 (at node 7)
Accepted flit rate average= 0.0506875
	minimum = 0.037 (at node 9)
	maximum = 0.061 (at node 13)
Injected packet length average = 1
Accepted packet length average = 1
Total in-flight flits = 14 (0 measured)
latency change    = 0.103277
throughput change = 0.0678175
Class 0:
Packet latency average = 21.7986
	minimum = 7
	maximum = 55
Network latency average = 21.7986
	minimum = 7
	maximum = 55
Slowest packet = 37136
Flit latency average = 21.7986
	minimum = 7
	maximum = 55
Slowest flit = 37136
Fragmentation average = 0
	minimum = 0
	maximum = 0
Injected packet rate average = 0.053375
	minimum = 0.04 (at node 8)
	maximum = 0.068 (at node 7)
Accepted packet rate average = 0.052125
	minimum = 0.04 (at node 2)
	maximum = 0.068 (at node 13)
Injected flit rate average = 0.053375
	minimum = 0.04 (at node 8)
	maximum = 0.068 (at node 7)
Accepted flit rate average= 0.052125
	minimum = 0.04 (at node 2)
	maximum = 0.068 (at node 13)
Injected packet length average = 1
[...]
Slowest flit = 139624
Fragmentation average = 0
	minimum = 0
	maximum = 0
Injected packet rate average = 0.0504062
	minimum = 0.044 (at node 15)
	maximum = 0.0555 (at node 14)
Accepted packet rate average = 0.05025
	minimum = 0.0435 (at node 15)
	maximum = 0.055 (at node 3)
Injected flit rate average = 0.0504062
	minimum = 0.044 (at node 15)
	maximum = 0.0555 (at node 14)
Accepted flit rate average= 0.05025
	minimum = 0.0435 (at node 15)
	maximum = 0.055 (at node 3)
Injected packet length average = 1
Accepted packet length average = 1
Total in-flight flits = 20 (20 measured)
latency change    = 0.0164838
throughput change = 0.0207297
Draining all recorded packets ...
Draining remaining packets ...
Time taken is 3578 cycles
Class 0:
Packet latency average = 19.8877
	minimum = 7
	maximum = 46
Network latency average = 19.8877
	minimum = 7
	maximum = 46
Slowest packet = 140798
Flit latency average = 19.8877
	minimum = 7
	maximum = 46
Slowest flit = 140798
Fragmentation average = 0
	minimum = 0
	maximum = 0
Injected packet rate average = 0.047625
	minimum = 0.024 (at node 8)
	maximum = 0.064 (at node 14)
Accepted packet rate average = 0.045625
	minimum = 0.024 (at node 2)
	maximum = 0.062 (at node 11)
Injected flit rate average = 0.047625
	minimum = 0.024 (at node 8)
	maximum = 0.064 (at node 14)
Accepted flit rate average= 0.045625
	minimum = 0.024 (at node 2)
	maximum = 0.062 (at node 11)
Injected packet length average = 1
Accepted packet length average = 1
Total in-flight flits = 16 (0 measured)
latency change    = 1
throughput change = 1
Class 0:
Packet latency average = 20.6538
	minimum = 7
	maximum = 58
Network latency average = 20.6538
	minimum = 7
	maximum = 58
Slowest packet = 141057
Flit latency average = 20.6538
	minimum = 7
	maximum = 58
Slowest flit = 141057
Fragmentation average = 0
	minimum = 0
	maximum = 0
Injected packet rate average = 0.048
	minimum = 0.029 (at node 8)
	maximum = 0.07 (at node 14)
Accepted packet rate average = 0.047125
	minimum = 0.028 (at node 2)
	maximum = 0.069 (at node 11)
Injected flit rate average = 0.048
	minimum = 0.029 (at node 8)
	maximum = 0.07 (at node 14)
Accepted flit rate average= 0.047125
	minimum = 0.028 (at node 2)
	maximum = 0.069 (at node 11)
Injected packet length average = 1
Accepted packet length average = 1
Total in-flight flits = 14 (0 measured)
latency change    = 0.037096
throughput change = 0.0318302
Class 0:
Packet latency average = 21.0158
	minimum = 7
	maximum = 61
Network latency average = 21.0158
	minimum = 7
	maximum = 61
Slowest packet = 141337
Flit latency average = 21.0158
	minimum = 7
	maximum = 61
Slowest flit = 141337
Fragmentation average = 0
	minimum = 0
	maximum = 0
Injected packet rate average = 0.04825
	minimum = 0.034 (at node 7)
	maximum = 0.062 (at node 0)
Accepted packet rate average = 0.047375
	minimum = 0.036 (at node 4)
	maximum = 0.062 (at node 0)
Injected flit rate average = 0.04825
	minimum = 0.034 (at node 7)
	maximum = 0.062 (at node 0)
Accepted flit rate average= 0.047375
	minimum = 0.036 (at node 4)
	maximum = 0.062 (at node 0)
Injected packet length average = 1
Accepted packet length average = 1
Total in-flight flits = 21 (0 measured)
latency change    = 0.0172244
throughput change = 0.00527704
Warmed up ...Time used is 1500 cycles
Class 0:
Packet latency average = 21.9918
	minimum = 7
	maximum = 62
Network latency average = 21.9918
	minimum = 7
	maximum = 62
Slowest packet = 142048
Flit latency average = 22.2371
	minimum = 7
	maximum = 62
Slowest flit = 142048
Fragmentation average = 0
	minimum = 0
	maximum = 0
Injected packet rate average = 0.048
	minimum = 0.024 (at node 10)
	maximum = 0.068 (at node 0)
Accepted packet rate average = 0.0485
	minimum = 0.022 (at node 10)
	maximum = 0.066 (at node 0)
Injected flit rate average = 0.048
	minimum = 0.024 (at node 10)
	maximum = 0.068 (at node 0)
Accepted flit rate average= 0.0485
	minimum = 0.022 (at node 10)
	maximum = 0.066 (at node 0)
Injected packet length average = 1
Accepted packet length average = 1
Total in-flight flits = 17 (17 measured)
latency change    = 0.0443799
throughput change = 0.0231959
Class 0:
Packet latency average = 22.7776
	minimum = 7
	maximum = 110
Network latency average = 22.7412
	minimum = 7
	maximum = 110
Slowest packet = 142315
Flit latency average = 22.8418
	minimum = 7
	maximum = 110
Slowest flit = 142315
Fragmentation average = 0
	minimum = 0
	maximum = 0
Injected packet rate average = 0.049625
	minimum = 0.037 (at node 10)
	maximum = 0.057 (at node 4)
Accepted packet rate average = 0.049375
	minimum = 0.035 (at node 10)
	maximum = 0.056 (at node 1)
Injected flit rate average = 0.049625
	minimum = 0.037 (at node 10)
	maximum = 0.057 (at node 4)
Accepted flit rate average= 0.049375
	minimum = 0.035 (at node 10)
	maximum = 0.056 (at node 1)
Injected packet length average = 1
Accepted packet length average = 1
Total in-flight flits = 25 (25 measured)
latency change    = 0.0344991
throughput change = 0.0177215
Class 0:
Packet latency average = 22.601
	minimum = 7
	maximum = 110
Network latency average = 22.5771
	minimum = 7
	maximum = 110
Slowest packet = 142315
Flit latency average = 22.6468
	minimum = 7
	maximum = 110
Slowest flit = 142315
Fragmentation average = 0
	minimum = 0
	maximum = 0
Injected packet rate average = 0.0492917
	minimum = 0.038 (at node 10)
	maximum = 0.0593333 (at node 12)
Accepted packet rate average = 0.0495417
	minimum = 0.038 (at node 10)
	maximum = 0.058 (at node 3)
Injected flit rate average = 0.0492917
	minimum = 0.038 (at node 10)
	maximum = 0.0593333 (at node 12)
Accepted flit rate average= 0.0495417
	minimum = 0.038 (at node 10)
	maximum = 0.058 (at node 3)
Injected packet length average = 1
Accepted packet length average = 1
Total in-flight flits = 15 (15 measured)
latency change    = 0.00781406
throughput change = 0.00336417
Draining all recorded packets ...
Draining remaining packets ...
Time taken is 3063 cycles
Class 0:
Packet latency average = 20.1895
	minimum = 7
	maximum = 56
Network latency average = 20.1895
	minimum = 7
	maximum = 56
Slowest packet = 143236
Flit latency average = 20.1895
	minimum = 7
	maximum = 56
Slowest flit = 143236
Fragmentation average = 0
	minimum = 0
	maximum = 0
Injected packet rate average = 0.05225
	minimum = 0.04 (at node 11)
	maximum = 0.072 (at node 5)
Accepted packet rate average = 0.050125
	minimum = 0.038 (at node 14)
	maximum = 0.07 (at node 5)
Injected flit rate average = 0.05225
	minimum = 0.04 (at node 11)
	maximum = 0.072 (at node 5)
Accepted flit rate average= 0.050125
	minimum = 0.038 (at node 14)
	maximum = 0.07 (at node 5)
Injected packet length average = 1
Accepted packet length average = 1
Total in-flight flits = 17 (0 measured)
latency change    = 1
throughput change = 1
Class 0:
Packet latency average = 20.4917
	minimum = 7
	maximum = 56
Network latency average = 20.4917
	minimum = 7
	maximum = 56
Slowest packet = 143236
Flit latency average = 20.4917
	minimum = 7
	maximum = 56
Slowest flit = 143236
Fragmentation average = 0
	minimum = 0
	maximum = 0
Injected packet rate average = 0.049625
	minimum = 0.038 (at node 14)
	maximum = 0.063 (at node 5)
Accepted packet rate average = 0.0489375
	minimum = 0.038 (at node 11)
	maximum = 0.063 (at node 5)
Injected flit rate average = 0.049625
	minimum = 0.038 (at node 14)
	maximum = 0.063 (at node 5)
Accepted flit rate average= 0.0489375
	minimum = 0.038 (at node 11)
	maximum = 0.063 (at node 5)
Injected packet length average = 1
Accepted packet length average = 1
Total in-flight flits = 11 (0 measured)
latency change    = 0.0147461
throughput change = 0.0242656
Class 0:
Packet latency average = 21.2481
	minimum = 7
	maximum = 59
Network latency average = 21.2481
	minimum = 7
	maximum = 59
Slowest packet = 143925
Flit latency average = 21.2481
	minimum = 7
	maximum = 59
Slowest flit = 143925
Fragmentation average = 0
	minimum = 0
	maximum = 0
Injected packet rate average = 0.050625
	minimum = 0.04 (at node 3)
	maximum = 0.07 (at node 1)
Accepted packet rate average = 0.048875
	minimum = 0.036 (at node 3)
	maximum = 0.062 (at node 4)
Injected flit rate average = 0.050625
	minimum = 0.04 (at node 3)
	maximum = 0.07 (at node 1)
Accepted flit rate average= 0.048875
	minimum = 0.036 (at node 3)
	maximum = 0.062 (at node 4)
Injected packet length average = 1
Accepted packet length average = 1
Total in-flight flits = 25 (0 measured)
latency change    = 0.0355977
throughput change = 0.00127877
Warmed up ...Time used is 1500 cycles
Class 0:
Packet latency average = 19.8785
	minimum = 7
	maximum = 52
Network latency average = 19.8785
	minimum = 7
	maximum = 52
Slowest packet = 144229
Flit latency average = 20.186
	minimum = 7
	maximum = 52
Slowest flit = 144229
Fragmentation average = 0
	minimum = 0
	maximum = 0
Injected packet rate average = 0.04675
	minimum = 0.026 (at node 1)
	maximum = 0.07 (at node 6)
Accepted packet rate average = 0.048375
	minimum = 0.034 (at node 3)
	maximum = 0.072 (at node 9)
Injected flit rate average = 0.04675
	minimum = 0.026 (at node 1)
	maximum = 0.07 (at node 6)
Accepted flit rate average= 0.048375
	minimum = 0.034 (at node 3)
	maximum = 0.072 (at node 9)
Injected packet length average = 1
Accepted packet length average = 1
Total in-flight flits = 12 (12 measured)
latency change    = 0.0689002
throughput change = 0.0103359
Class 0:
Packet latency average = 20.4178
	minimum = 7
	maximum = 56
Network latency average = 20.4178
	minimum = 7
	maximum = 56
Slowest packet = 144563
Flit latency average = 20.5444
	minimum = 7
	maximum = 56
Slowest flit = 144563
Fragmentation average = 0
	minimum = 0
	maximum = 0
Injected packet rate average = 0.052125
	minimum = 0.037 (at node 12)
	maximum = 0.072 (at node 6)
Accepted packet rate average = 0.052125
	minimum = 0.039 (at node 3)
	maximum = 0.073 (at node 9)
Injected flit rate average = 0.052125
	minimum = 0.037 (at node 12)
	maximum = 0.072 (at node 6)
Accepted flit rate average= 0.052125
	minimum = 0.039 (at node 3)
	maximum = 0.073 (at node 9)
Injected packet length average = 1
Accepted packet length average = 1
Total in-flight flits = 25 (25 measured)
latency change    = 0.0264155
throughput change = 0.0719424
Class 0:
Packet latency average = 20.5767
	minimum = 7
	maximum = 56
Network latency average = 20.5767
	minimum = 7
	maximum = 56
Slowest packet = 144563
Flit latency average = 20.6601
	minimum = 7
	maximum = 56
Slowest flit = 144563
Fragmentation average = 0
	minimum = 0
	maximum = 0
Injected packet rate average = 0.0508333
	minimum = 0.042 (at node 12)
	maximum = 0.0653333 (at node 6)
Accepted packet rate average = 0.05075
	minimum = 0.0406667 (at node 3)
	maximum = 0.0666667 (at node 9)
Injected flit rate average = 0.0508333
	minimum = 0.042 (at node 12)
	maximum = 0.0653333 (at node 6)
Accepted flit rate average= 0.05075
	minimum = 0.0406667 (at node 3)
	maximum = 0.0666667 (at node 9)
Injected packet length average = 1
Accepted packet length average = 1
Total in-flight flits = 27 (27 measured)
latency change    = 0.00772221
throughput change = 0.0270936
Class 0:
Packet latency average = 20.7686
	minimum = 7
	maximum = 56
Network latency average = 20.7686
	minimum = 7
	maximum = 56
Slowest packet = 144563
Flit latency average = 20.8285
	minimum = 7
	maximum = 56
Slowest flit = 144563
Fragmentation average = 0
	minimum = 0
	maximum = 0
Injected packet rate average = 0.0503125
	minimum = 0.0415 (at node 11)
	maximum = 0.059 (at node 6)
Accepted packet rate average = 0.0504687
	minimum = 0.044 (at node 3)
	maximum = 0.059 (at node 9)
Injected flit rate average = 0.0503125
	minimum = 0.0415 (at node 11)
	maximum = 0.059 (at node 6)
Accepted flit rate average= 0.0504687
	minimum = 0.044 (at node 3)
	maximum = 0.059 (at node 9)
Injected packet length average = 1
Accepted packet length average = 1
Total in-flight flits = 20 (20 measured)
latency change    = 0.00923782
throughput change = 0.00557276
Class 0:
Packet latency average = 21.1406
	minimum = 7
	maximum = 88
Network latency average = 21.1401
	minimum = 7
	maximum = 88
Slowest packet = 145734
Flit latency average = 21.1829
	minimum = 7
	maximum = 88
Slowest flit = 145734
Fragmentation average = 0
	minimum = 0
	maximum = 0
Injected packet rate average = 0.05095
	minimum = 0.042 (at node 11)
	maximum = 0.0564 (at node 6)
Accepted packet rate average = 0.051125
	minimum = 0.044 (at node 14)
	maximum = 0.0568 (at node 9)
Injected flit rate average = 0.05095
	minimum = 0.042 (at node 11)
	maximum = 0.0564 (at node 6)
Accepted flit rate average= 0.051125
	minimum = 0.044 (at node 14)
	maximum = 0.0568 (at node 9)
Injected packet length average = 1
Accepted packet length average = 1
Total in-flight flits = 18 (18 measured)
latency change    = 0.0175984
throughput change = 0.0128362
Draining all recorded packets ...
Draining remaining packets ...
Time taken is 4078 cycles
Class 0:
Packet latency average = 21.8417
	minimum = 7
	maximum = 71
Network latency average = 21.8417
	minimum = 7
	maximum = 71
Slowest packet = 146532
Flit latency average = 21.8417
	minimum = 7
	maximum = 71
Slowest flit = 146532
Fragmentation average = 0
	minimum = 0
	maximum = 0
Injected packet rate average = 0.054375
	minimum = 0.032 (at node 4)
	maximum = 0.08 (at node 15)
Accepted packet rate average = 0.052125
	minimum = 0.03 (at node 1)
	maximum = 0.08 (at node 15)
Injected flit rate average = 0.054375
	minimum = 0.032 (at node 4)
	maximum = 0.08 (at node 15)
Accepted flit rate average= 0.052125
	minimum = 0.03 (at node 1)
	maximum = 0.08 (at node 15)
Injected packet length average = 1
Accepted packet length average = 1
Total in-flight flits = 18 (0 measured)
latency change    = 1
throughput change = 1
Class 0:
Packet latency average = 22.0317
	minimum = 7
	maximum = 74
Network latency average = 22.0317
	minimum = 7
	maximum = 74
Slowest packet = 146998
Flit latency average = 22.0317
	minimum = 7
	maximum = 74
Slowest flit = 146998
Fragmentation average = 0
	minimum = 0
	maximum = 0
Injected packet rate average = 0.054375
	minimum = 0.038 (at node 4)
	maximum = 0.071 (at node 12)
Accepted packet rate average = 0.0531875
	minimum = 0.038 (at node 1)
	maximum = 0.069 (at node 3)
Injected flit rate average = 0.054375
	minimum = 0.038 (at node 4)
	maximum = 0.071 (at node 12)
Accepted flit rate average= 0.0531875
	minimum = 0.038 (at node 1)
	maximum = 0.069 (at node 3)
Injected packet length average = 1
Accepted packet length average = 1
Total in-flight flits = 19 (0 measured)
latency change    = 0.00862396
throughput change = 0.0199765
Class 0:
Packet latency average = 21.4259
	minimum = 7
	maximum = 69
Network latency average = 21.4259
	minimum = 7
	maximum = 69
Slowest packet = 147176
Flit latency average = 21.4259
	minimum = 7
	maximum = 69
Slowest flit = 147176
Fragmentation average = 0
	minimum = 0
	maximum = 0
Injected packet rate average = 0.0535
	minimum = 0.038 (at node 1)
	maximum = 0.072 (at node 0)
Accepted packet rate average = 0.054
	minimum = 0.038 (at node 2)
	maximum = 0.074 (at node 0)
Injected flit rate average = 0.0535
	minimum = 0.038 (at node 1)
	maximum = 0.072 (at node 0)
Accepted flit rate average= 0.054
	minimum = 0.038 (at node 2)
	maximum = 0.074 (at node 0)
Injected packet length average = 1
Accepted packet length average = 1
Total in-flight flits = 15 (0 measured)
latency change    = 0.0282742
throughput change = 0.0150463
Warmed up ...Time used is 1500 cycles
Class 0:
Packet latency average = 23.3926
	minimum = 7
	maximum = 98
Network latency average = 23.3827
	minimum = 7
	maximum = 98
Slowest packet = 147820
Flit latency average = 23.5571
	minimum = 7
	maximum = 98
Slowest flit = 147820
Fragmentation average = 0
	minimum = 0
	maximum = 0
Injected packet rate average = 0.05475
	minimum = 0.036 (at node 1)
	maximum = 0.064 (at node 6)
Accepted packet rate average = 0.0525
	minimum = 0.038 (at node 1)
	maximum = 0.062 (at node 10)
Injected flit rate average = 0.05475
	minimum = 0.036 (at node 1)
	maximum = 0.064 (at node 6)
Accepted flit rate average= 0.0525
	minimum = 0.038 (at node 1)
	maximum = 0.062 (at node 10)
Injected packet length average = 1
Accepted packet length average = 1
Total in-flight flits = 33 (33 measured)
latency change    = 0.0840722
throughput change = 0.0285714
Class 0:
Packet latency average = 24.3112
	minimum = 7
	maximum = 165
Network latency average = 24.2645
	minimum = 7
	maximum = 162
Slowest packet = 147894
Flit latency average = 24.337
	minimum = 7
	maximum = 162
Slowest flit = 147894
Fragmentation average = 0
	minimum = 0
	maximum = 0
Injected packet rate average = 0.0523125
	minimum = 0.045 (at node 4)
	maximum = 0.06 (at node 5)
Accepted packet rate average = 0.05175
	minimum = 0.043 (at node 1)
	maximum = 0.062 (at node 11)
Injected flit rate average = 0.0523125
	minimum = 0.045 (at node 4)
	maximum = 0.06 (at node 5)
Accepted flit rate average= 0.05175
	minimum = 0.043 (at node 1)
	maximum = 0.062 (at node 11)
Injected packet length average = 1
Accepted packet length average = 1
Total in-flight flits = 24 (24 measured)
latency change    = 0.0377851
throughput change = 0.0144928
Class 0:
Packet latency average = 23.4142
	minimum = 7
	maximum = 165
Network latency average = 23.3832
	minimum = 7
	maximum = 162
Slowest packet = 147894
Flit latency average = 23.4423
	minimum = 7
	maximum = 162
Slowest flit = 147894
Fragmentation average = 0
	minimum = 0
	maximum = 0
Injected packet rate average = 0.0520417
	minimum = 0.0453333 (at node 0)
	maximum = 0.0586667 (at node 5)
Accepted packet rate average = 0.051625
	minimum = 0.0453333 (at node 0)
	maximum = 0.0586667 (at node 5)
Injected flit rate average = 0.0520417
	minimum = 0.0453333 (at node 0)
	maximum = 0.0586667 (at node 5)
Accepted flit rate average= 0.051625
	minimum = 0.0453333 (at node 0)
	maximum = 0.0586667 (at node 5)
Injected packet length average = 1
Accepted packet length average = 1
Total in-flight flits = 25 (25 measured)
latency change    = 0.0383091
throughput change = 0.00242131
Class 0:
Packet latency average = 23.0372
	minimum = 7
	maximum = 165
Network latency average = 23.014
	minimum = 7
	maximum = 162
Slowest packet = 147894
Flit latency average = 23.0617
	minimum = 7
	maximum = 162
Slowest flit = 147894
Fragmentation average = 0
	minimum = 0
	maximum = 0
Injected packet rate average = 0.0517813
	minimum = 0.044 (at node 0)
	maximum = 0.0595 (at node 1)
Accepted packet rate average = 0.0516875
	minimum = 0.043 (at node 0)
	maximum = 0.0595 (at node 4)
Injected flit rate average = 0.0517813
	minimum = 0.044 (at node 0)
	maximum = 0.0595 (at node 1)
Accepted flit rate average= 0.0516875
	minimum = 0.043 (at node 0)
	maximum = 0.0595 (at node 4)
Injected packet length average = 1
Accepted packet length average = 1
Total in-flight flits = 18 (18 measured)
latency change    = 0.0163647
throughput change = 0.00120919
Draining all recorded packets ...
Draining remaining packets ...
Time taken is 3575 cycles
====== Overall Traffic Statistics ======
====== Traffic class 0 ======
Packet latency average = 21.8778 (50 samples)
	minimum = 7 (50 samples)
	maximum = 105.72 (50 samples)
Network latency average = 21.8472 (50 samples)
	minimum = 7 (50 samples)
	maximum = 104.18 (50 samples)
Flit latency average = 21.9091 (50 samples)
	minimum = 7 (50 samples)
	maximum = 105 (50 samples)
Fragmentation average = 0 (50 samples)
	minimum = 0 (50 samples)
	maximum = 0 (50 samples)
Injected packet rate average = 0.0502049 (50 samples)
	minimum = 0.0416011 (50 samples)
	maximum = 0.0584338 (50 samples)
Accepted packet rate average = 0.0502235 (50 samples)
	minimum = 0.0417049 (50 samples)
	maximum = 0.058495 (50 samples)
Injected flit rate average = 0.0502049 (50 samples)
	minimum = 0.0416011 (50 samples)
	maximum = 0.0584338 (50 samples)
Accepted flit rate average = 0.0502235 (50 samples)
	minimum = 0.0417049 (50 samples)
	maximum = 0.058495 (50 samples)
Injected packet size average = 1 (50 samples)
Accepted packet size average = 1 (50 samples)
Hops average = 3.4958 (50 samples)
Total run time 2.28222
