BEGIN Configuration File: /tmp/tmp1zi9bbeh.cfg
topology = mesh;
k = 4;
n = 2;
routing_function = gnn_port_score_route_4x4_v4;
num_vcs = 4;
vc_buf_size = 4;
wait_for_tail_credit = 1;
vc_allocator = islip;
sw_allocator = islip;
alloc_iters = 1;
credit_delay = 2;
routing_delay = 1;
vc_alloc_delay = 1;
sw_alloc_delay = 1;
input_speedup = 2;
output_speedup = 1;
internal_speedup = 1.0;
traffic = transpose;
packet_size = 1;
sim_type = latency;
injection_rate = 0.01;
warmup_periods = 3;
sample_period = 500;
sim_count = 50;
seed = 0;
link_failures = 7;
fail_seed = 101;

END Configuration File: /tmp/tmp1zi9bbeh.cfg
failure at node 14, channel 0 (1/7)
failure at node 12, channel 0 (2/7)
failure at node 4, channel 2 (3/7)
failure at node 11, channel 1 (4/7)
failure at node 5, channel 3 (5/7)
failure at node 9, channel 0 (6/7)
failure at node 8, channel 3 (7/7)
Class 0:
Packet latency average = 19.0741
	minimum = 7
	maximum = 37
Network latency average = 19.0741
	minimum = 7
	maximum = 37
Slowest packet = 1
Flit latency average = 19.0741
	minimum = 7
	maximum = 37
Slowest flit = 1
Fragmentation average = 0
	minimum = 0
	maximum = 0
Injected packet rate average = 0.010375
	minimum = 0.004 (at node 5)
	maximum = 0.016 (at node 9)
Accepted packet rate average = 0.010125
	minimum = 0.004 (at node 5)
	maximum = 0.016 (at node 6)
Injected flit rate average = 0.010375
	minimum = 0.004 (at node 5)
	maximum = 0.016 (at node 9)
Accepted flit rate average= 0.010125
	minimum = 0.004 (at node 5)
	maximum = 0.016 (at node 6)
Injected packet length average = 1
Accepted packet length average = 1
Total in-flight flits = 2 (0 measured)
latency change    = 1
throughput change = 1
Class 0:
Packet latency average = 19.2143
	minimum = 7
	maximum = 39
Network latency average = 19.2143
	minimum = 7
	maximum = 39
Slowest packet = 131
Flit latency average = 19.2143
	minimum = 7
	maximum = 39
Slowest flit = 131
Fragmentation average = 0
	minimum = 0
	maximum = 0
Injected packet rate average = 0.00975
	minimum = 0.004 (at node 11)
	maximum = 0.014 (at node 13)
Accepted packet rate average = 0.009625
	minimum = 0.003 (at node 14)
	maximum = 0.014 (at node 7)
Injected flit rate average = 0.00975
	minimum = 0.004 (at node 11)
	maximum = 0.014 (at node 13)
Accepted flit rate average= 0.009625
	minimum = 0.003 (at node 14)
	maximum = 0.014 (at node 7)
Injected packet length average = 1
Accepted packet length average = 1
Total in-flight flits = 2 (0 measured)
latency change    = 0.00729726
throughput change = 0.0519481
Class 0:
Packet latency average = 18.4286
	minimum = 7
	maximum = 37
Network latency average = 18.4286
	minimum = 7
	maximum = 37
Slowest packet = 158
Flit latency average = 18.4286
	minimum = 7
	maximum = 37
Slowest flit = 158
Fragmentation average = 0
	minimum = 0
	maximum = 0
Injected packet rate average = 0.00925
	minimum = 0.002 (at node 11)
	maximum = 0.016 (at node 10)
Accepted packet rate average = 0.00875
	minimum = 0.002 (at node 7)
	maximum = 0.016 (at node 10)
Injected flit rate average = 0.00925
	minimum = 0.002 (at node 11)
	maximum = 0.016 (at node 10)
Accepted flit rate average= 0.00875
	minimum = 0.002 (at node 7)
	maximum = 0.016 (at node 10)
Injected packet length average = 1
Accepted packet length average = 1
Total in-flight flits = 6 (0 measured)
latency change    = 0.0426357
throughput change = 0.1
Warmed up ...Time used is 1500 cycles
Class 0:
Packet latency average = 21.0667
	minimum = 7
	maximum = 40
Network latency average = 21.0667
	minimum = 7
	maximum = 40
Slowest packet = 245
Flit latency average = 21.7531
	minimum = 7
	maximum = 40
Slowest flit = 245
Fragmentation average = 0
	minimum = 0
	maximum = 0
Injected packet rate average = 0.00975
	minimum = 0.004 (at node 3)
	maximum = 0.018 (at node 8)
Accepted packet rate average = 0.010125
	minimum = 0.004 (at node 1)
	maximum = 0.018 (at node 2)
Injected flit rate average = 0.00975
	minimum = 0.004 (at node 3)
	maximum = 0.018 (at node 8)
Accepted flit rate average= 0.010125
	minimum = 0.004 (at node 1)
	maximum = 0.018 (at node 2)
Injected packet length average = 1
Accepted packet length average = 1
Total in-flight flits = 3 (3 measured)
latency change    = 0.125226
throughput change = 0.135802
Class 0:
Packet latency average = 20.1961
	minimum = 7
	maximum = 40
Network latency average = 20.1961
	minimum = 7
	maximum = 40
Slowest packet = 245
Flit latency average = 20.5786
	minimum = 7
	maximum = 40
Slowest flit = 245
Fragmentation average = 0
	minimum = 0
	maximum = 0
Injected packet rate average = 0.0096875
	minimum = 0.005 (at node 7)
	maximum = 0.016 (at node 13)
Accepted packet rate average = 0.0099375
	minimum = 0.005 (at node 13)
	maximum = 0.016 (at node 7)
Injected flit rate average = 0.0096875
	minimum = 0.005 (at node 7)
	maximum = 0.016 (at node 13)
Accepted flit rate average= 0.0099375
	minimum = 0.005 (at node 13)
	maximum = 0.016 (at node 7)
Injected packet length average = 1
Accepted packet length average = 1
Total in-flight flits = 2 (2 measured)
latency change    = 0.0431068
throughput change = 0.0188679
Class 0:
Packet latency average = 20.2996
	minimum = 7
	maximum = 40
Network latency average = 20.2996
	minimum = 7
	maximum = 40
Slowest packet = 245
Flit latency average = 20.5473
	minimum = 7
	maximum = 40
Slowest flit = 245
Fragmentation average = 0
	minimum = 0
	maximum = 0
Injected packet rate average = 0.00991667
	minimum = 0.00733333 (at node 7)
	maximum = 0.0133333 (at node 13)
Accepted packet rate average = 0.010125
	minimum = 0.00666667 (at node 13)
	maximum = 0.0133333 (at node 7)
Injected flit rate average = 0.00991667
	minimum = 0.00733333 (at node 7)
	maximum = 0.0133333 (at node 13)
Accepted flit rate average= 0.010125
	minimum = 0.00666667 (at node 13)
	maximum = 0.0133333 (at node 7)
Injected packet length average = 1
Accepted packet length average = 1
Total in-flight flits = 1 (1 measured)
latency change    = 0.00509861
throughput change = 0.0185185
Class 0:
Packet latency average = 20.0639
	minimum = 7
	maximum = 40
Network latency average = 20.0639
	minimum = 7
	maximum = 40
Slowest packet = 245
Flit latency average = 20.2571
	minimum = 7
	maximum = 40
Slowest flit = 245
Fragmentation average = 0
	minimum = 0
	maximum = 0
Injected packet rate average = 0.00990625
	minimum = 0.0075 (at node 1)
	maximum = 0.013 (at node 8)
Accepted packet rate average = 0.00996875
	minimum = 0.0075 (at node 4)
	maximum = 0.013 (at node 2)
Injected flit rate average = 0.00990625
	minimum = 0.0075 (at node 1)
	maximum = 0.013 (at node 8)
Accepted flit rate average= 0.00996875
	minimum = 0.0075 (at node 4)
	maximum = 0.013 (at node 2)
Injected packet length average = 1
Accepted packet length average = 1
Total in-flight flits = 4 (4 measured)
latency change    = 0.0117465
throughput change = 0.015674
Draining all recorded packets ...
Draining remaining packets ...
Time taken is 3550 cycles
Class 0:
Packet latency average = 19.1875
	minimum = 7
	maximum = 37
Network latency average = 19.1875
	minimum = 7
	maximum = 37
Slowest packet = 564
Flit latency average = 19.1875
	minimum = 7
	maximum = 37
Slowest flit = 564
Fragmentation average = 0
	minimum = 0
	maximum = 0
Injected packet rate average = 0.008125
	minimum = 0.004 (at node 5)
	maximum = 0.016 (at node 11)
Accepted packet rate average = 0.008
	minimum = 0.004 (at node 2)
	maximum = 0.016 (at node 14)
Injected flit rate average = 0.008125
	minimum = 0.004 (at node 5)
	maximum = 0.016 (at node 11)
Accepted flit rate average= 0.008
	minimum = 0.004 (at node 2)
	maximum = 0.016 (at node 14)
Injected packet length average = 1
Accepted packet length average = 1
Total in-flight flits = 1 (0 measured)
latency change    = 1
throughput change = 1
Class 0:
Packet latency average = 18.8273
	minimum = 7
	maximum = 39
Network latency average = 18.8273
	minimum = 7
	maximum = 39
Slowest packet = 629
Flit latency average = 18.8273
	minimum = 7
	maximum = 39
Slowest flit = 629
Fragmentation average = 0
	minimum = 0
	maximum = 0
Injected packet rate average = 0.009
	minimum = 0.006 (at node 8)
	maximum = 0.016 (at node 10)
Accepted packet rate average = 0.0086875
	minimum = 0.006 (at node 2)
	maximum = 0.016 (at node 10)
Injected flit rate average = 0.009
	minimum = 0.006 (at node 8)
	maximum = 0.016 (at node 10)
Accepted flit rate average= 0.0086875
	minimum = 0.006 (at node 2)
	maximum = 0.016 (at node 10)
Injected packet length average = 1
Accepted packet length average = 1
Total in-flight flits = 5 (0 measured)
latency change    = 0.0191297
throughput change = 0.0791367
Class 0:
Packet latency average = 20.2394
	minimum = 7
	maximum = 37
Network latency average = 20.2394
	minimum = 7
	maximum = 37
Slowest packet = 690
Flit latency average = 20.2394
	minimum = 7
	maximum = 37
Slowest flit = 690
Fragmentation average = 0
	minimum = 0
	maximum = 0
Injected packet rate average = 0.009
	minimum = 0.004 (at node 9)
	maximum = 0.014 (at node 6)
Accepted packet rate average = 0.008875
	minimum = 0.004 (at node 6)
	maximum = 0.016 (at node 9)
Injected flit rate average = 0.009
	minimum = 0.004 (at node 9)
	maximum = 0.014 (at node 6)
Accepted flit rate average= 0.008875
	minimum = 0.004 (at node 6)
	maximum = 0.016 (at node 9)
Injected packet length average = 1
Accepted packet length average = 1
Total in-flight flits = 6 (0 measured)
latency change    = 0.0697697
throughput change = 0.0211268
Warmed up ...Time used is 1500 cycles
Class 0:
Packet latency average = 17.625
	minimum = 7
	maximum = 37
Network latency average = 17.625
	minimum = 7
	maximum = 37
Slowest packet = 772
Flit latency average = 18.0465
	minimum = 7
	maximum = 37
Slowest flit = 764
Fragmentation average = 0
	minimum = 0
	maximum = 0
Injected packet rate average = 0.01025
	minimum = 0.002 (at node 2)
	maximum = 0.02 (at node 15)
Accepted packet rate average = 0.01075
	minimum = 0.002 (at node 8)
	maximum = 0.02 (at node 15)
Injected flit rate average = 0.01025
	minimum = 0.002 (at node 2)
	maximum = 0.02 (at node 15)
Accepted flit rate average= 0.01075
	minimum = 0.002 (at node 8)
	maximum = 0.02 (at node 15)
Injected packet length average = 1
Accepted packet length average = 1
Total in-flight flits = 2 (2 measured)
latency change    = 0.148337
throughput change = 0.174419
Class 0:
Packet latency average = 19.8355
	minimum = 7
	maximum = 38
Network latency average = 19.8355
	minimum = 7
	maximum = 38
Slowest packet = 852
Flit latency average = 19.981
	minimum = 7
	maximum = 38
Slowest flit = 852
Fragmentation average = 0
	minimum = 0
	maximum = 0
Injected packet rate average = 0.009875
	minimum = 0.005 (at node 6)
	maximum = 0.015 (at node 3)
Accepted packet rate average = 0.009875
	minimum = 0.006 (at node 8)
	maximum = 0.015 (at node 12)
Injected flit rate average = 0.009875
	minimum = 0.005 (at node 6)
	maximum = 0.015 (at node 3)
Accepted flit rate average= 0.009875
	minimum = 0.006 (at node 8)
	maximum = 0.015 (at node 12)
Injected packet length average = 1
Accepted packet length average = 1
Total in-flight flits = 6 (6 measured)
latency change    = 0.111443
throughput change = 0.0886076
Class 0:
Packet latency average = 20.0422
	minimum = 7
	maximum = 38
Network latency average = 20.0422
	minimum = 7
	maximum = 38
Slowest packet = 852
Flit latency average = 20.1317
	minimum = 7
	maximum = 38
Slowest flit = 852
Fragmentation average = 0
	minimum = 0
	maximum = 0
Injected packet rate average = 0.01025
	minimum = 0.00533333 (at node 10)
	maximum = 0.018 (at node 3)
Accepted packet rate average = 0.010125
	minimum = 0.006 (at node 8)
	maximum = 0.016 (at node 12)
Injected flit rate average = 0.01025
	minimum = 0.00533333 (at node 10)
	maximum = 0.018 (at node 3)
Accepted flit rate average= 0.010125
	minimum = 0.006 (at node 8)
	maximum = 0.016 (at node 12)
Injected packet length average = 1
Accepted packet length average = 1
Total in-flight flits = 9 (9 measured)
latency change    = 0.0103116
throughput change = 0.0246914
Class 0:
Packet latency average = 20.2147
	minimum = 7
	maximum = 41
Network latency average = 20.2147
	minimum = 7
	maximum = 41
Slowest packet = 1033
Flit latency average = 20.2799
	minimum = 7
	maximum = 41
Slowest flit = 1033
Fragmentation average = 0
	minimum = 0
	maximum = 0
Injected packet rate average = 0.00996875
	minimum = 0.0055 (at node 2)
	maximum = 0.0165 (at node 13)
Accepted packet rate average = 0.0099375
	minimum = 0.0055 (at node 8)
	maximum = 0.0155 (at node 7)
Injected flit rate average = 0.00996875
	minimum = 0.0055 (at node 2)
	maximum = 0.0165 (at node 13)
Accepted flit rate average= 0.0099375
	minimum = 0.0055 (at node 8)
	maximum = 0.0155 (at node 7)
Injected packet length average = 1
Accepted packet length average = 1
Total in-flight flits = 7 (7 measured)
latency change    = 0.00853582
throughput change = 0.0188679
Class 0:
Packet latency average = 20.1633
	minimum = 7
	maximum = 41
Network latency average = 20.1633
	minimum = 7
	maximum = 41
Slowest packet = 1033
Flit latency average = 20.2161
	minimum = 7
	maximum = 41
Slowest flit = 1033
Fragmentation average = 0
	minimum = 0
	maximum = 0
Injected packet rate average = 0.00995
	minimum = 0.0072 (at node 2)
	maximum = 0.0156 (at node 13)
Accepted packet rate average = 0.00995
	minimum = 0.0068 (at node 8)
	maximum = 0.0156 (at node 7)
Injected flit rate average = 0.00995
	minimum = 0.0072 (at node 2)
	maximum = 0.0156 (at node 13)
Accepted flit rate average= 0.00995
	minimum = 0.0068 (at node 8)
	maximum = 0.0156 (at node 7)
Injected packet length average = 1
Accepted packet length average = 1
Total in-flight flits = 6 (6 measured)
latency change    = 0.00255307
throughput change = 0.00125628
Draining all recorded packets ...
Draining remaining packets ...
Time taken is 4047 cycles
Class 0:
Packet latency average = 19.1798
	minimum = 7
	maximum = 37
Network latency average = 19.1798
	minimum = 7
	maximum = 37
Slowest packet = 1184
Flit latency average = 19.1798
	minimum = 7
	maximum = 37
Slowest flit = 1184
Fragmentation average = 0
	minimum = 0
	maximum = 0
Injected packet rate average = 0.011375
	minimum = 0.004 (at node 5)
	maximum = 0.018 (at node 1)
Accepted packet rate average = 0.011125
	minimum = 0.004 (at node 5)
	maximum = 0.018 (at node 4)
Injected flit rate average = 0.011375
	minimum = 0.004 (at node 5)
	maximum = 0.018 (at node 1)
Accepted flit rate average= 0.011125
	minimum = 0.004 (at node 5)
	maximum = 0.018 (at node 4)
Injected packet length average = 1
Accepted packet length average = 1
Total in-flight flits = 2 (0 measured)
latency change    = 1
throughput change = 1
Class 0:
Packet latency average = 18.8836
	minimum = 7
	maximum = 41
Network latency average = 18.8836
	minimum = 7
	maximum = 41
Slowest packet = 1315
Flit latency average = 18.8836
	minimum = 7
	maximum = 41
Slowest flit = 1315
Fragmentation average = 0
	minimum = 0
	maximum = 0
Injected packet rate average = 0.012
	minimum = 0.007 (at node 8)
	maximum = 0.017 (at node 6)
Accepted packet rate average = 0.0118125
	minimum = 0.007 (at node 2)
	maximum = 0.017 (at node 9)
Injected flit rate average = 0.012
	minimum = 0.007 (at node 8)
	maximum = 0.017 (at node 6)
Accepted flit rate average= 0.0118125
	minimum = 0.007 (at node 2)
	maximum = 0.017 (at node 9)
Injected packet length average = 1
Accepted packet length average = 1
Total in-flight flits = 3 (0 measured)
latency change    = 0.0156844
throughput change = 0.0582011
Class 0:
Packet latency average = 20.3678
	minimum = 7
	maximum = 45
Network latency average = 20.3678
	minimum = 7
	maximum = 45
Slowest packet = 1371
Flit latency average = 20.3678
	minimum = 7
	maximum = 45
Slowest flit = 1371
Fragmentation average = 0
	minimum = 0
	maximum = 0
Injected packet rate average = 0.010625
	minimum = 0.004 (at node 5)
	maximum = 0.016 (at node 1)
Accepted packet rate average = 0.010875
	minimum = 0.004 (at node 5)
	maximum = 0.016 (at node 4)
Injected flit rate average = 0.010625
	minimum = 0.004 (at node 5)
	maximum = 0.016 (at node 1)
Accepted flit rate average= 0.010875
	minimum = 0.004 (at node 5)
	maximum = 0.016 (at node 4)
Injected packet length average = 1
Accepted packet length average = 1
Total in-flight flits = 1 (0 measured)
latency change    = 0.0728708
throughput change = 0.0862069
Warmed up ...Time used is 1500 cycles
Class 0:
Packet latency average = 20.6316
	minimum = 7
	maximum = 42
Network latency average = 20.6316
	minimum = 7
	maximum = 42
Slowest packet = 1479
Flit latency average = 20.5844
	minimum = 7
	maximum = 42
Slowest flit = 1479
Fragmentation average = 0
	minimum = 0
	maximum = 0
Injected packet rate average = 0.0095
	minimum = 0.002 (at node 5)
	maximum = 0.02 (at node 7)
Accepted packet rate average = 0.009625
	minimum = 0.002 (at node 5)
	maximum = 0.02 (at node 13)
Injected flit rate average = 0.0095
	minimum = 0.002 (at node 5)
	maximum = 0.02 (at node 7)
Accepted flit rate average= 0.009625
	minimum = 0.002 (at node 5)
	maximum = 0.02 (at node 13)
Injected packet length average = 1
Accepted packet length average = 1
Total in-flight flits = 0 (0 measured)
latency change    = 0.0127844
throughput change = 0.12987
Class 0:
Packet latency average = 20.7817
	minimum = 7
	maximum = 42
Network latency average = 20.7817
	minimum = 7
	maximum = 42
Slowest packet = 1479
Flit latency average = 20.7552
	minimum = 7
	maximum = 42
Slowest flit = 1479
Fragmentation average = 0
	minimum = 0
	maximum = 0
Injected packet rate average = 0.00925
	minimum = 0.004 (at node 2)
	maximum = 0.015 (at node 7)
Accepted packet rate average = 0.0089375
	minimum = 0.004 (at node 5)
	maximum = 0.014 (at node 12)
Injected flit rate average = 0.00925
	minimum = 0.004 (at node 2)
	maximum = 0.015 (at node 7)
Accepted flit rate average= 0.0089375
	minimum = 0.004 (at node 5)
	maximum = 0.014 (at node 12)
Injected packet length average = 1
Accepted packet length average = 1
Total in-flight flits = 6 (6 measured)
latency change    = 0.00722324
throughput change = 0.0769231
Class 0:
Packet latency average = 19.4389
	minimum = 7
	maximum = 42
Network latency average = 19.4389
	minimum = 7
	maximum = 42
Slowest packet = 1479
Flit latency average = 19.4279
	minimum = 7
	maximum = 42
Slowest flit = 1479
Fragmentation average = 0
	minimum = 0
	maximum = 0
Injected packet rate average = 0.009375
	minimum = 0.004 (at node 2)
	maximum = 0.012 (at node 1)
Accepted packet rate average = 0.00925
	minimum = 0.00333333 (at node 8)
	maximum = 0.012 (at node 4)
Injected flit rate average = 0.009375
	minimum = 0.004 (at node 2)
	maximum = 0.012 (at node 1)
Accepted flit rate average= 0.00925
	minimum = 0.00333333 (at node 8)
	maximum = 0.012 (at node 4)
Injected packet length average = 1
Accepted packet length average = 1
Total in-flight flits = 4 (4 measured)
latency change    = 0.0690767
throughput change = 0.0337838
Class 0:
Packet latency average = 19.588
	minimum = 7
	maximum = 42
Network latency average = 19.588
	minimum = 7
	maximum = 42
Slowest packet = 1479
Flit latency average = 19.5795
	minimum = 7
	maximum = 42
Slowest flit = 1479
Fragmentation average = 0
	minimum = 0
	maximum = 0
Injected packet rate average = 0.0095
	minimum = 0.005 (at node 2)
	maximum = 0.013 (at node 1)
Accepted packet rate average = 0.0094375
	minimum = 0.005 (at node 8)
	maximum = 0.013 (at node 4)
Injected flit rate average = 0.0095
	minimum = 0.005 (at node 2)
	maximum = 0.013 (at node 1)
Accepted flit rate average= 0.0094375
	minimum = 0.005 (at node 8)
	maximum = 0.013 (at node 4)
Injected packet length average = 1
Accepted packet length average = 1
Total in-flight flits = 3 (3 measured)
latency change    = 0.00761311
throughput change = 0.0198675
Class 0:
Packet latency average = 19.6923
	minimum = 7
	maximum = 42
Network latency average = 19.6923
	minimum = 7
	maximum = 42
Slowest packet = 1479
Flit latency average = 19.6854
	minimum = 7
	maximum = 42
Slowest flit = 1479
Fragmentation average = 0
	minimum = 0
	maximum = 0
Injected packet rate average = 0.009775
	minimum = 0.0072 (at node 6)
	maximum = 0.0124 (at node 1)
Accepted packet rate average = 0.009775
	minimum = 0.0072 (at node 9)
	maximum = 0.0124 (at node 4)
Injected flit rate average = 0.009775
	minimum = 0.0072 (at node 6)
	maximum = 0.0124 (at node 1)
Accepted flit rate average= 0.009775
	minimum = 0.0072 (at node 9)
	maximum = 0.0124 (at node 4)
Injected packet length average = 1
Accepted packet length average = 1
Total in-flight flits = 1 (1 measured)
latency change    = 0.00529485
throughput change = 0.0345269
Class 0:
Packet latency average = 19.8481
	minimum = 7
	maximum = 42
Network latency average = 19.8481
	minimum = 7
	maximum = 42
Slowest packet = 1479
Flit latency average = 19.8421
	minimum = 7
	maximum = 42
Slowest flit = 1479
Fragmentation average = 0
	minimum = 0
	maximum = 0
Injected packet rate average = 0.00991667
	minimum = 0.00733333 (at node 6)
	maximum = 0.013 (at node 7)
Accepted packet rate average = 0.00989583
	minimum = 0.00733333 (at node 9)
	maximum = 0.0126667 (at node 13)
Injected flit rate average = 0.00991667
	minimum = 0.00733333 (at node 6)
	maximum = 0.013 (at node 7)
Accepted flit rate average= 0.00989583
	minimum = 0.00733333 (at node 9)
	maximum = 0.0126667 (at node 13)
Injected packet length average = 1
Accepted packet length average = 1
Total in-flight flits = 2 (2 measured)
latency change    = 0.00784929
throughput change = 0.0122105
Draining all recorded packets ...
Draining remaining packets ...
Time taken is 4546 cycles
Class 0:
Packet latency average = 20.7442
	minimum = 7
	maximum = 38
Network latency average = 20.7442
	minimum = 7
	maximum = 38
Slowest packet = 1993
Flit latency average = 20.7442
	minimum = 7
	maximum = 38
Slowest flit = 1993
Fragmentation average = 0
	minimum = 0
	maximum = 0
Injected packet rate average = 0.01075
	minimum = 0.004 (at node 9)
	maximum = 0.018 (at node 2)
Accepted packet rate average = 0.01075
	minimum = 0.004 (at node 6)
	maximum = 0.018 (at node 8)
Injected flit rate average = 0.01075
	minimum = 0.004 (at node 9)
	maximum = 0.018 (at node 2)
Accepted flit rate average= 0.01075
	minimum = 0.004 (at node 6)
	maximum = 0.018 (at node 8)
Injected packet length average = 1
Accepted packet length average = 1
Total in-flight flits = 0 (0 measured)
latency change    = 1
throughput change = 1
Class 0:
Packet latency average = 19.9818
	minimum = 7
	maximum = 38
Network latency average = 19.9818
	minimum = 7
	maximum = 38
Slowest packet = 1993
Flit latency average = 19.9818
	minimum = 7
	maximum = 38
Slowest flit = 1993
Fragmentation average = 0
	minimum = 0
	maximum = 0
Injected packet rate average = 0.01075
	minimum = 0.006 (at node 10)
	maximum = 0.015 (at node 2)
Accepted packet rate average = 0.0103125
	minimum = 0.006 (at node 10)
	maximum = 0.013 (at node 7)
Injected flit rate average = 0.01075
	minimum = 0.006 (at node 10)
	maximum = 0.015 (at node 2)
Accepted flit rate average= 0.0103125
	minimum = 0.006 (at node 10)
	maximum = 0.013 (at node 7)
Injected packet length average = 1
Accepted packet length average = 1
Total in-flight flits = 7 (0 measured)
latency change    = 0.0381531
throughput change = 0.0424242
Class 0:
Packet latency average = 19.809
	minimum = 7
	maximum = 37
Network latency average = 19.809
	minimum = 7
	maximum = 37
Slowest packet = 2096
Flit latency average = 19.809
	minimum = 7
	maximum = 37
Slowest flit = 2096
Fragmentation average = 0
	minimum = 0
	maximum = 0
Injected packet rate average = 0.01075
	minimum = 0.002 (at node 14)
	maximum = 0.018 (at node 10)
Accepted packet rate average = 0.011125
	minimum = 0.002 (at node 11)
	maximum = 0.02 (at node 7)
Injected flit rate average = 0.01075
	minimum = 0.002 (at node 14)
	maximum = 0.018 (at node 10)
Accepted flit rate average= 0.011125
	minimum = 0.002 (at node 11)
	maximum = 0.02 (at node 7)
Injected packet length average = 1
Accepted packet length average = 1
Total in-flight flits = 4 (0 measured)
latency change    = 0.0087248
throughput change = 0.0730337
Warmed up ...Time used is 1500 cycles
Class 0:
Packet latency average = 18.5385
	minimum = 7
	maximum = 37
Network latency average = 18.5385
	minimum = 7
	maximum = 37
Slowest packet = 2194
Flit latency average = 19.4638
	minimum = 7
	maximum = 37
Slowest flit = 2178
Fragmentation average = 0
	minimum = 0
	maximum = 0
Injected packet rate average = 0.008375
	minimum = 0.004 (at node 2)
	maximum = 0.012 (at node 7)
Accepted packet rate average = 0.008625
	minimum = 0.004 (at node 7)
	maximum = 0.012 (at node 12)
Injected flit rate average = 0.008375
	minimum = 0.004 (at node 2)
	maximum = 0.012 (at node 7)
Accepted flit rate average= 0.008625
	minimum = 0.004 (at node 7)
	maximum = 0.012 (at node 12)
Injected packet length average = 1
Accepted packet length average = 1
Total in-flight flits = 2 (2 measured)
latency change    = 0.0685347
throughput change = 0.289855
Class 0:
Packet latency average = 18.5845
	minimum = 7
	maximum = 37
Network latency average = 18.5845
	minimum = 7
	maximum = 37
Slowest packet = 2194
Flit latency average = 19.0205
	minimum = 7
	maximum = 37
Slowest flit = 2178
Fragmentation average = 0
	minimum = 0
	maximum = 0
Injected packet rate average = 0.009125
	minimum = 0.007 (at node 1)
	maximum = 0.012 (at node 9)
Accepted packet rate average = 0.009125
	minimum = 0.007 (at node 3)
	maximum = 0.012 (at node 6)
Injected flit rate average = 0.009125
	minimum = 0.007 (at node 1)
	maximum = 0.012 (at node 9)
Accepted flit rate average= 0.009125
	minimum = 0.007 (at node 3)
	maximum = 0.012 (at node 6)
Injected packet length average = 1
Accepted packet length average = 1
Total in-flight flits = 4 (4 measured)
latency change    = 0.00247763
throughput change = 0.0547945
Class 0:
Packet latency average = 18.5581
	minimum = 7
	maximum = 37
Network latency average = 18.5581
	minimum = 7
	maximum = 37
Slowest packet = 2194
Flit latency average = 18.8493
	minimum = 7
	maximum = 37
Slowest flit = 2178
Fragmentation average = 0
	minimum = 0
	maximum = 0
Injected packet rate average = 0.00908333
	minimum = 0.006 (at node 12)
	maximum = 0.012 (at node 7)
Accepted packet rate average = 0.009125
	minimum = 0.006 (at node 3)
	maximum = 0.012 (at node 13)
Injected flit rate average = 0.00908333
	minimum = 0.006 (at node 12)
	maximum = 0.012 (at node 7)
Accepted flit rate average= 0.009125
	minimum = 0.006 (at node 3)
	maximum = 0.012 (at node 13)
Injected packet length average = 1
Accepted packet length average = 1
Total in-flight flits = 3 (3 measured)
latency change    = 0.00142081
throughput change = 0
Class 0:
Packet latency average = 18.5886
	minimum = 7
	maximum = 37
Network latency average = 18.5886
	minimum = 7
	maximum = 37
Slowest packet = 2194
Flit latency average = 18.7987
	minimum = 7
	maximum = 37
Slowest flit = 2178
Fragmentation average = 0
	minimum = 0
	maximum = 0
Injected packet rate average = 0.009375
	minimum = 0.006 (at node 3)
	maximum = 0.012 (at node 7)
Accepted packet rate average = 0.00946875
	minimum = 0.007 (at node 12)
	maximum = 0.012 (at node 13)
Injected flit rate average = 0.009375
	minimum = 0.006 (at node 3)
	maximum = 0.012 (at node 7)
Accepted flit rate average= 0.00946875
	minimum = 0.007 (at node 12)
	maximum = 0.012 (at node 13)
Injected packet length average = 1
Accepted packet length average = 1
Total in-flight flits = 1 (1 measured)
latency change    = 0.00164021
throughput change = 0.0363036
Class 0:
Packet latency average = 18.9265
	minimum = 7
	maximum = 41
Network latency average = 18.9265
	minimum = 7
	maximum = 41
Slowest packet = 2520
Flit latency average = 19.0883
	minimum = 7
	maximum = 41
Slowest flit = 2520
Fragmentation average = 0
	minimum = 0
	maximum = 0
Injected packet rate average = 0.00955
	minimum = 0.0068 (at node 3)
	maximum = 0.012 (at node 5)
Accepted packet rate average = 0.009625
	minimum = 0.0072 (at node 0)
	maximum = 0.012 (at node 5)
Injected flit rate average = 0.00955
	minimum = 0.0068 (at node 3)
	maximum = 0.012 (at node 5)
Accepted flit rate average= 0.009625
	minimum = 0.0072 (at node 0)
	maximum = 0.012 (at node 5)
Injected packet length average = 1
Accepted packet length average = 1
Total in-flight flits = 1 (1 measured)
latency change    = 0.0178522
throughput change = 0.0162338
Draining all recorded packets ...
Draining remaining packets ...
Time taken is 4059 cycles
Class 0:
Packet latency average = 18.5897
	minimum = 7
	maximum = 37
Network latency average = 18.5897
	minimum = 7
	maximum = 37
Slowest packet = 2583
Flit latency average = 18.5897
	minimum = 7
	maximum = 37
Slowest flit = 2583
Fragmentation average = 0
	minimum = 0
	maximum = 0
Injected packet rate average = 0.01025
	minimum = 0.006 (at node 7)
	maximum = 0.02 (at node 4)
Accepted packet rate average = 0.00975
	minimum = 0.006 (at node 7)
	maximum = 0.018 (at node 1)
Injected flit rate average = 0.01025
	minimum = 0.006 (at node 7)
	maximum = 0.02 (at node 4)
Accepted flit rate average= 0.00975
	minimum = 0.006 (at node 7)
	maximum = 0.018 (at node 1)
Injected packet length average = 1
Accepted packet length average = 1
Total in-flight flits = 4 (0 measured)
latency change    = 1
throughput change = 1
Class 0:
Packet latency average = 19.8889
	minimum = 7
	maximum = 37
Network latency average = 19.8889
	minimum = 7
	maximum = 37
Slowest packet = 2583
Flit latency average = 19.8889
	minimum = 7
	maximum = 37
Slowest flit = 2583
Fragmentation average = 0
	minimum = 0
	maximum = 0
Injected packet rate average = 0.01025
	minimum = 0.005 (at node 7)
	maximum = 0.014 (at node 11)
Accepted packet rate average = 0.010125
	minimum = 0.005 (at node 13)
	maximum = 0.014 (at node 14)
Injected flit rate average = 0.01025
	minimum = 0.005 (at node 7)
	maximum = 0.014 (at node 11)
Accepted flit rate average= 0.010125
	minimum = 0.005 (at node 13)
	maximum = 0.014 (at node 14)
Injected packet length average = 1
Accepted packet length average = 1
Total in-flight flits = 2 (0 measured)
latency change    = 0.0653202
throughput change = 0.037037
Class 0:
Packet latency average = 18.6393
	minimum = 7
	maximum = 37
Network latency average = 18.6393
	minimum = 7
	maximum = 37
Slowest packet = 2738
Flit latency average = 18.6393
	minimum = 7
	maximum = 37
Slowest flit = 2738
Fragmentation average = 0
	minimum = 0
	maximum = 0
Injected packet rate average = 0.008125
	minimum = 0.002 (at node 2)
	maximum = 0.016 (at node 11)
Accepted packet rate average = 0.007625
	minimum = 0.002 (at node 6)
	maximum = 0.014 (at node 14)
Injected flit rate average = 0.008125
	minimum = 0.002 (at node 2)
	maximum = 0.016 (at node 11)
Accepted flit rate average= 0.007625
	minimum = 0.002 (at node 6)
	maximum = 0.014 (at node 14)
Injected packet length average = 1
Accepted packet length average = 1
Total in-flight flits = 6 (0 measured)
latency change    = 0.067038
throughput change = 0.327869
Warmed up ...Time used is 1500 cycles
Class 0:
Packet latency average = 20.5068
	minimum = 7
	maximum = 37
Network latency average = 20.5068
	minimum = 7
	maximum = 37
Slowest packet = 2815
Flit latency average = 20.8734
	minimum = 7
	maximum = 37
Slowest flit = 2799
Fragmentation average = 0
	minimum = 0
	maximum = 0
Injected packet rate average = 0.0095
	minimum = 0 (at node 10)
	maximum = 0.02 (at node 13)
Accepted packet rate average = 0.009875
	minimum = 0 (at node 10)
	maximum = 0.018 (at node 7)
Injected flit rate average = 0.0095
	minimum = 0 (at node 10)
	maximum = 0.02 (at node 13)
Accepted flit rate average= 0.009875
	minimum = 0 (at node 10)
	maximum = 0.018 (at node 7)
Injected packet length average = 1
Accepted packet length average = 1
Total in-flight flits = 3 (3 measured)
latency change    = 0.0910674
throughput change = 0.227848
Class 0:
Packet latency average = 20.1615
	minimum = 7
	maximum = 38
Network latency average = 20.1615
	minimum = 7
	maximum = 38
Slowest packet = 2937
Flit latency average = 20.3473
	minimum = 7
	maximum = 38
Slowest flit = 2937
Fragmentation average = 0
	minimum = 0
	maximum = 0
Injected packet rate average = 0.0103125
	minimum = 0.004 (at node 9)
	maximum = 0.015 (at node 8)
Accepted packet rate average = 0.0104375
	minimum = 0.005 (at node 6)
	maximum = 0.015 (at node 2)
Injected flit rate average = 0.0103125
	minimum = 0.004 (at node 9)
	maximum = 0.015 (at node 8)
Accepted flit rate average= 0.0104375
	minimum = 0.005 (at node 6)
	maximum = 0.015 (at node 2)
Injected packet length average = 1
Accepted packet length average = 1
Total in-flight flits = 4 (4 measured)
latency change    = 0.0171296
throughput change = 0.0538922
Class 0:
Packet latency average = 19.8622
	minimum = 7
	maximum = 42
Network latency average = 19.8622
	minimum = 7
	maximum = 42
Slowest packet = 2987
Flit latency average = 20.0043
	minimum = 7
	maximum = 42
Slowest flit = 2987
Fragmentation average = 0
	minimum = 0
	maximum = 0
Injected packet rate average = 0.00945833
	minimum = 0.00266667 (at node 9)
	maximum = 0.0146667 (at node 11)
Accepted packet rate average = 0.009625
	minimum = 0.00333333 (at node 6)
	maximum = 0.0153333 (at node 14)
Injected flit rate average = 0.00945833
	minimum = 0.00266667 (at node 9)
	maximum = 0.0146667 (at node 11)
Accepted flit rate average= 0.009625
	minimum = 0.00333333 (at node 6)
	maximum = 0.0153333 (at node 14)
Injected packet length average = 1
Accepted packet length average = 1
Total in-flight flits = 2 (2 measured)
latency change    = 0.0150672
throughput change = 0.0844156
Class 0:
Packet latency average = 20.0365
	minimum = 7
	maximum = 42
Network latency average = 20.0365
	minimum = 7
	maximum = 42
Slowest packet = 2987
Flit latency average = 20.1401
	minimum = 7
	maximum = 42
Slowest flit = 2987
Fragmentation average = 0
	minimum = 0
	maximum = 0
Injected packet rate average = 0.00946875
	minimum = 0.0045 (at node 9)
	maximum = 0.013 (at node 8)
Accepted packet rate average = 0.00959375
	minimum = 0.005 (at node 6)
	maximum = 0.0135 (at node 14)
Injected flit rate average = 0.00946875
	minimum = 0.0045 (at node 9)
	maximum = 0.013 (at node 8)
Accepted flit rate average= 0.00959375
	minimum = 0.005 (at node 6)
	maximum = 0.0135 (at node 14)
Injected packet length average = 1
Accepted packet length average = 1
Total in-flight flits = 2 (2 measured)
latency change    = 0.00870023
throughput change = 0.00325733
Class 0:
Packet latency average = 20.1811
	minimum = 7
	maximum = 42
Network latency average = 20.1811
	minimum = 7
	maximum = 42
Slowest packet = 2987
Flit latency average = 20.2633
	minimum = 7
	maximum = 42
Slowest flit = 2987
Fragmentation average = 0
	minimum = 0
	maximum = 0
Injected packet rate average = 0.009275
	minimum = 0.0048 (at node 9)
	maximum = 0.0132 (at node 11)
Accepted packet rate average = 0.0094
	minimum = 0.0052 (at node 6)
	maximum = 0.0136 (at node 14)
Injected flit rate average = 0.009275
	minimum = 0.0048 (at node 9)
	maximum = 0.0132 (at node 11)
Accepted flit rate average= 0.0094
	minimum = 0.0052 (at node 6)
	maximum = 0.0136 (at node 14)
Injected packet length average = 1
Accepted packet length average = 1
Total in-flight flits = 1 (1 measured)
latency change    = 0.00716197
throughput change = 0.0206117
Class 0:
Packet latency average = 20.1197
	minimum = 7
	maximum = 42
Network latency average = 20.1197
	minimum = 7
	maximum = 42
Slowest packet = 2987
Flit latency average = 20.1882
	minimum = 7
	maximum = 42
Slowest flit = 2987
Fragmentation average = 0
	minimum = 0
	maximum = 0
Injected packet rate average = 0.0094375
	minimum = 0.00633333 (at node 2)
	maximum = 0.0116667 (at node 7)
Accepted packet rate average = 0.00952083
	minimum = 0.00633333 (at node 8)
	maximum = 0.012 (at node 14)
Injected flit rate average = 0.0094375
	minimum = 0.00633333 (at node 2)
	maximum = 0.0116667 (at node 7)
Accepted flit rate average= 0.00952083
	minimum = 0.00633333 (at node 8)
	maximum = 0.012 (at node 14)
Injected packet length average = 1
Accepted packet length average = 1
Total in-flight flits = 2 (2 measured)
latency change    = 0.0030491
throughput change = 0.0126915
Draining all recorded packets ...
Draining remaining packets ...
Time taken is 4543 cycles
Class 0:
Packet latency average = 20.6267
	minimum = 7
	maximum = 40
Network latency average = 20.6267
	minimum = 7
	maximum = 40
Slowest packet = 3303
Flit latency average = 20.6267
	minimum = 7
	maximum = 40
Slowest flit = 3303
Fragmentation average = 0
	minimum = 0
	maximum = 0
Injected packet rate average = 0.009625
	minimum = 0.002 (at node 5)
	maximum = 0.016 (at node 7)
Accepted packet rate average = 0.009375
	minimum = 0.002 (at node 5)
	maximum = 0.016 (at node 2)
Injected flit rate average = 0.009625
	minimum = 0.002 (at node 5)
	maximum = 0.016 (at node 7)
Accepted flit rate average= 0.009375
	minimum = 0.002 (at node 5)
	maximum = 0.016 (at node 2)
Injected packet length average = 1
Accepted packet length average = 1
Total in-flight flits = 2 (0 measured)
latency change    = 1
throughput change = 1
Class 0:
Packet latency average = 21.025
	minimum = 7
	maximum = 44
Network latency average = 21.025
	minimum = 7
	maximum = 44
Slowest packet = 3400
Flit latency average = 21.025
	minimum = 7
	maximum = 44
Slowest flit = 3400
Fragmentation average = 0
	minimum = 0
	maximum = 0
Injected packet rate average = 0.01025
	minimum = 0.004 (at node 5)
	maximum = 0.018 (at node 12)
Accepted packet rate average = 0.01
	minimum = 0.004 (at node 5)
	maximum = 0.018 (at node 3)
Injected flit rate average = 0.01025
	minimum = 0.004 (at node 5)
	maximum = 0.018 (at node 12)
Accepted flit rate average= 0.01
	minimum = 0.004 (at node 5)
	maximum = 0.018 (at node 3)
Injected packet length average = 1
Accepted packet length average = 1
Total in-flight flits = 4 (0 measured)
latency change    = 0.0189457
throughput change = 0.0625
Class 0:
Packet latency average = 17.5435
	minimum = 7
	maximum = 37
Network latency average = 17.5435
	minimum = 7
	maximum = 37
Slowest packet = 3418
Flit latency average = 17.5435
	minimum = 7
	maximum = 37
Slowest flit = 3418
Fragmentation average = 0
	minimum = 0
	maximum = 0
Injected packet rate average = 0.01125
	minimum = 0.002 (at node 1)
	maximum = 0.02 (at node 0)
Accepted packet rate average = 0.0115
	minimum = 0.002 (at node 2)
	maximum = 0.02 (at node 0)
Injected flit rate average = 0.01125
	minimum = 0.002 (at node 1)
	maximum = 0.02 (at node 0)
Accepted flit rate average= 0.0115
	minimum = 0.002 (at node 2)
	maximum = 0.02 (at node 0)
Injected packet length average = 1
Accepted packet length average = 1
Total in-flight flits = 2 (0 measured)
latency change    = 0.198451
throughput change = 0.130435
Warmed up ...Time used is 1500 cycles
Class 0:
Packet latency average = 18.2625
	minimum = 7
	maximum = 37
Network latency average = 18.2625
	minimum = 7
	maximum = 37
Slowest packet = 3517
Flit latency average = 18.4756
	minimum = 7
	maximum = 37
Slowest flit = 3510
Fragmentation average = 0
	minimum = 0
	maximum = 0
Injected packet rate average = 0.01025
	minimum = 0.004 (at node 12)
	maximum = 0.022 (at node 14)
Accepted packet rate average = 0.01025
	minimum = 0.004 (at node 3)
	maximum = 0.022 (at node 11)
Injected flit rate average = 0.01025
	minimum = 0.004 (at node 12)
	maximum = 0.022 (at node 14)
Accepted flit rate average= 0.01025
	minimum = 0.004 (at node 3)
	maximum = 0.022 (at node 11)
Injected packet length average = 1
Accepted packet length average = 1
Total in-flight flits = 2 (2 measured)
latency change    = 0.0393715
throughput change = 0.121951
Class 0:
Packet latency average = 17.8043
	minimum = 7
	maximum = 37
Network latency average = 17.8043
	minimum = 7
	maximum = 37
Slowest packet = 3517
Flit latency average = 17.9357
	minimum = 7
	maximum = 37
Slowest flit = 3510
Fragmentation average = 0
	minimum = 0
	maximum = 0
Injected packet rate average = 0.00875
	minimum = 0.005 (at node 2)
	maximum = 0.012 (at node 5)
Accepted packet rate average = 0.00875
	minimum = 0.005 (at node 2)
	maximum = 0.012 (at node 5)
Injected flit rate average = 0.00875
	minimum = 0.005 (at node 2)
	maximum = 0.012 (at node 5)
Accepted flit rate average= 0.00875
	minimum = 0.005 (at node 2)
	maximum = 0.012 (at node 5)
Injected packet length average = 1
Accepted packet length average = 1
Total in-flight flits = 2 (2 measured)
latency change    = 0.0257326
throughput change = 0.171429
Class 0:
Packet latency average = 18.125
	minimum = 7
	maximum = 45
Network latency average = 18.125
	minimum = 7
	maximum = 45
Slowest packet = 3664
Flit latency average = 18.2095
	minimum = 7
	maximum = 45
Slowest flit = 3664
Fragmentation average = 0
	minimum = 0
	maximum = 0
Injected packet rate average = 0.00879167
	minimum = 0.00466667 (at node 2)
	maximum = 0.016 (at node 11)
Accepted packet rate average = 0.00875
	minimum = 0.00466667 (at node 8)
	maximum = 0.0146667 (at node 14)
Injected flit rate average = 0.00879167
	minimum = 0.00466667 (at node 2)
	maximum = 0.016 (at node 11)
Accepted flit rate average= 0.00875
	minimum = 0.00466667 (at node 8)
	maximum = 0.0146667 (at node 14)
Injected packet length average = 1
Accepted packet length average = 1
Total in-flight flits = 3 (3 measured)
latency change    = 0.0176912
throughput change = 0
Class 0:
Packet latency average = 18.4555
	minimum = 7
	maximum = 45
Network latency average = 18.4555
	minimum = 7
	maximum = 45
Slowest packet = 3664
Flit latency average = 18.5159
	minimum = 7
	maximum = 45
Slowest flit = 3664
Fragmentation average = 0
	minimum = 0
	maximum = 0
Injected packet rate average = 0.00896875
	minimum = 0.0055 (at node 2)
	maximum = 0.0145 (at node 11)
Accepted packet rate average = 0.00884375
	minimum = 0.005 (at node 8)
	maximum = 0.0145 (at node 14)
Injected flit rate average = 0.00896875
	minimum = 0.0055 (at node 2)
	maximum = 0.0145 (at node 11)
Accepted flit rate average= 0.00884375
	minimum = 0.005 (at node 8)
	maximum = 0.0145 (at node 14)
Injected packet length average = 1
Accepted packet length average = 1
Total in-flight flits = 6 (6 measured)
latency change    = 0.0179088
throughput change = 0.0106007
Class 0:
Packet latency average = 18.6823
	minimum = 7
	maximum = 45
Network latency average = 18.6823
	minimum = 7
	maximum = 45
Slowest packet = 3664
Flit latency average = 18.728
	minimum = 7
	maximum = 45
Slowest flit = 3664
Fragmentation average = 0
	minimum = 0
	maximum = 0
Injected packet rate average = 0.00905
	minimum = 0.006 (at node 2)
	maximum = 0.0144 (at node 11)
Accepted packet rate average = 0.0091
	minimum = 0.006 (at node 8)
	maximum = 0.0144 (at node 14)
Injected flit rate average = 0.00905
	minimum = 0.006 (at node 2)
	maximum = 0.0144 (at node 11)
Accepted flit rate average= 0.0091
	minimum = 0.006 (at node 8)
	maximum = 0.0144 (at node 14)
Injected packet length average = 1
Accepted packet length average = 1
Total in-flight flits = 0 (0 measured)
latency change    = 0.0121401
throughput change = 0.0281593
Draining all recorded packets ...
Draining remaining packets ...
Time taken is 4022 cycles
Class 0:
Packet latency average = 18.4225
	minimum = 7
	maximum = 37
Network latency average = 18.4225
	minimum = 7
	maximum = 37
Slowest packet = 3882
Flit latency average = 18.4225
	minimum = 7
	maximum = 37
Slowest flit = 3882
Fragmentation average = 0
	minimum = 0
	maximum = 0
Injected packet rate average = 0.009125
	minimum = 0 (at node 10)
	maximum = 0.016 (at node 13)
Accepted packet rate average = 0.008875
	minimum = 0 (at node 10)
	maximum = 0.016 (at node 7)
Injected flit rate average = 0.009125
	minimum = 0 (at node 10)
	maximum = 0.016 (at node 13)
Accepted flit rate average= 0.008875
	minimum = 0 (at node 10)
	maximum = 0.016 (at node 7)
Injected packet length average = 1
Accepted packet length average = 1
Total in-flight flits = 2 (0 measured)
latency change    = 1
throughput change = 1
Class 0:
Packet latency average = 19.6074
	minimum = 7
	maximum = 37
Network latency average = 19.6074
	minimum = 7
	maximum = 37
Slowest packet = 3882
Flit latency average = 19.6074
	minimum = 7
	maximum = 37
Slowest flit = 3882
Fragmentation average = 0
	minimum = 0
	maximum = 0
Injected packet rate average = 0.01075
	minimum = 0.004 (at node 12)
	maximum = 0.017 (at node 11)
Accepted packet rate average = 0.0101875
	minimum = 0.004 (at node 3)
	maximum = 0.017 (at node 14)
Injected flit rate average = 0.01075
	minimum = 0.004 (at node 12)
	maximum = 0.017 (at node 11)
Accepted flit rate average= 0.0101875
	minimum = 0.004 (at node 3)
	maximum = 0.017 (at node 14)
Injected packet length average = 1
Accepted packet length average = 1
Total in-flight flits = 9 (0 measured)
latency change    = 0.0604276
throughput change = 0.128834
Class 0:
Packet latency average = 19.5275
	minimum = 7
	maximum = 40
Network latency average = 19.5275
	minimum = 7
	maximum = 40
Slowest packet = 4095
Flit latency average = 19.5275
	minimum = 7
	maximum = 40
Slowest flit = 4095
Fragmentation average = 0
	minimum = 0
	maximum = 0
Injected packet rate average = 0.010625
	minimum = 0.006 (at node 14)
	maximum = 0.02 (at node 0)
Accepted packet rate average = 0.011375
	minimum = 0.006 (at node 1)
	maximum = 0.022 (at node 2)
Injected flit rate average = 0.010625
	minimum = 0.006 (at node 14)
	maximum = 0.02 (at node 0)
Accepted flit rate average= 0.011375
	minimum = 0.006 (at node 1)
	maximum = 0.022 (at node 2)
Injected packet length average = 1
Accepted packet length average = 1
Total in-flight flits = 3 (0 measured)
latency change    = 0.00409113
throughput change = 0.104396
Warmed up ...Time used is 1500 cycles
Class 0:
Packet latency average = 19.9508
	minimum = 7
	maximum = 37
Network latency average = 19.9508
	minimum = 7
	maximum = 37
Slowest packet = 4143
Flit latency average = 20.125
	minimum = 7
	maximum = 37
Slowest flit = 4143
Fragmentation average = 0
	minimum = 0
	maximum = 0
Injected packet rate average = 0.008
	minimum = 0.004 (at node 6)
	maximum = 0.012 (at node 3)
Accepted packet rate average = 0.008
	minimum = 0.004 (at node 6)
	maximum = 0.012 (at node 3)
Injected flit rate average = 0.008
	minimum = 0.004 (at node 6)
	maximum = 0.012 (at node 3)
Accepted flit rate average= 0.008
	minimum = 0.004 (at node 6)
	maximum = 0.012 (at node 3)
Injected packet length average = 1
Accepted packet length average = 1
Total in-flight flits = 3 (3 measured)
latency change    = 0.0212195
throughput change = 0.421875
Class 0:
Packet latency average = 19.7123
	minimum = 7
	maximum = 37
Network latency average = 19.7123
	minimum = 7
	maximum = 37
Slowest packet = 4143
Flit latency average = 19.7919
	minimum = 7
	maximum = 37
Slowest flit = 4143
Fragmentation average = 0
	minimum = 0
	maximum = 0
Injected packet rate average = 0.0093125
	minimum = 0.005 (at node 7)
	maximum = 0.013 (at node 2)
Accepted packet rate average = 0.0093125
	minimum = 0.004 (at node 13)
	maximum = 0.014 (at node 2)
Injected flit rate average = 0.0093125
	minimum = 0.005 (at node 7)
	maximum = 0.013 (at node 2)
Accepted flit rate average= 0.0093125
	minimum = 0.004 (at node 13)
	maximum = 0.014 (at node 2)
Injected packet length average = 1
Accepted packet length average = 1
Total in-flight flits = 3 (3 measured)
latency change    = 0.0120986
throughput change = 0.14094
Class 0:
Packet latency average = 19.793
	minimum = 7
	maximum = 37
Network latency average = 19.793
	minimum = 7
	maximum = 37
Slowest packet = 4143
Flit latency average = 19.8435
	minimum = 7
	maximum = 37
Slowest flit = 4143
Fragmentation average = 0
	minimum = 0
	maximum = 0
Injected packet rate average = 0.00970833
	minimum = 0.006 (at node 7)
	maximum = 0.0146667 (at node 8)
Accepted packet rate average = 0.00958333
	minimum = 0.00533333 (at node 13)
	maximum = 0.0153333 (at node 2)
Injected flit rate average = 0.00970833
	minimum = 0.006 (at node 7)
	maximum = 0.0146667 (at node 8)
Accepted flit rate average= 0.00958333
	minimum = 0.00533333 (at node 13)
	maximum = 0.0153333 (at node 2)
Injected packet length average = 1
Accepted packet length average = 1
Total in-flight flits = 6 (6 measured)
latency change    = 0.00407331
throughput change = 0.0282609
Class 0:
Packet latency average = 19.8322
	minimum = 7
	maximum = 37
Network latency average = 19.8322
	minimum = 7
	maximum = 37
Slowest packet = 4143
Flit latency average = 19.8697
	minimum = 7
	maximum = 37
Slowest flit = 4143
Fragmentation average = 0
	minimum = 0
	maximum = 0
Injected packet rate average = 0.00965625
	minimum = 0.006 (at node 7)
	maximum = 0.013 (at node 8)
Accepted packet rate average = 0.00959375
	minimum = 0.006 (at node 13)
	maximum = 0.013 (at node 2)
Injected flit rate average = 0.00965625
	minimum = 0.006 (at node 7)
	maximum = 0.013 (at node 8)
Accepted flit rate average= 0.00959375
	minimum = 0.006 (at node 13)
	maximum = 0.013 (at node 2)
Injected packet length average = 1
Accepted packet length average = 1
Total in-flight flits = 5 (5 measured)
latency change    = 0.00198088
throughput change = 0.00108578
Class 0:
Packet latency average = 19.696
	minimum = 7
	maximum = 37
Network latency average = 19.696
	minimum = 7
	maximum = 37
Slowest packet = 4143
Flit latency average = 19.7257
	minimum = 7
	maximum = 37
Slowest flit = 4143
Fragmentation average = 0
	minimum = 0
	maximum = 0
Injected packet rate average = 0.00995
	minimum = 0.0064 (at node 7)
	maximum = 0.0152 (at node 8)
Accepted packet rate average = 0.010025
	minimum = 0.0064 (at node 13)
	maximum = 0.0156 (at node 2)
Injected flit rate average = 0.00995
	minimum = 0.0064 (at node 7)
	maximum = 0.0152 (at node 8)
Accepted flit rate average= 0.010025
	minimum = 0.0064 (at node 13)
	maximum = 0.0156 (at node 2)
Injected packet length average = 1
Accepted packet length average = 1
Total in-flight flits = 0 (0 measured)
latency change    = 0.00691801
throughput change = 0.0430175
Draining all recorded packets ...
Draining remaining packets ...
Time taken is 4001 cycles
Class 0:
Packet latency average = 18.3919
	minimum = 7
	maximum = 38
Network latency average = 18.3919
	minimum = 7
	maximum = 38
Slowest packet = 4572
Flit latency average = 18.3919
	minimum = 7
	maximum = 38
Slowest flit = 4572
Fragmentation average = 0
	minimum = 0
	maximum = 0
Injected packet rate average = 0.00975
	minimum = 0.004 (at node 2)
	maximum = 0.02 (at node 5)
Accepted packet rate average = 0.00925
	minimum = 0.004 (at node 6)
	maximum = 0.02 (at node 5)
Injected flit rate average = 0.00975
	minimum = 0.004 (at node 2)
	maximum = 0.02 (at node 5)
Accepted flit rate average= 0.00925
	minimum = 0.004 (at node 6)
	maximum = 0.02 (at node 5)
Injected packet length average = 1
Accepted packet length average = 1
Total in-flight flits = 4 (0 measured)
latency change    = 1
throughput change = 1
Class 0:
Packet latency average = 18.9222
	minimum = 7
	maximum = 41
Network latency average = 18.9222
	minimum = 7
	maximum = 41
Slowest packet = 4678
Flit latency average = 18.9222
	minimum = 7
	maximum = 41
Slowest flit = 4678
Fragmentation average = 0
	minimum = 0
	maximum = 0
Injected packet rate average = 0.010875
	minimum = 0.006 (at node 14)
	maximum = 0.02 (at node 5)
Accepted packet rate average = 0.0104375
	minimum = 0.005 (at node 11)
	maximum = 0.02 (at node 5)
Injected flit rate average = 0.010875
	minimum = 0.006 (at node 14)
	maximum = 0.02 (at node 5)
Accepted flit rate average= 0.0104375
	minimum = 0.005 (at node 11)
	maximum = 0.02 (at node 5)
Injected packet length average = 1
Accepted packet length average = 1
Total in-flight flits = 7 (0 measured)
latency change    = 0.0280234
throughput change = 0.113772
Class 0:
Packet latency average = 22.1739
	minimum = 7
	maximum = 42
Network latency average = 22.1739
	minimum = 7
	maximum = 42
Slowest packet = 4743
Flit latency average = 22.1739
	minimum = 7
	maximum = 42
Slowest flit = 4743
Fragmentation average = 0
	minimum = 0
	maximum = 0
Injected packet rate average = 0.008
	minimum = 0.002 (at node 0)
	maximum = 0.014 (at node 12)
Accepted packet rate average = 0.008625
	minimum = 0.002 (at node 0)
	maximum = 0.016 (at node 3)
Injected flit rate average = 0.008
	minimum = 0.002 (at node 0)
	maximum = 0.014 (at node 12)
Accepted flit rate average= 0.008625
	minimum = 0.002 (at node 0)
	maximum = 0.016 (at node 3)
Injected packet length average = 1
Accepted packet length average = 1
Total in-flight flits = 2 (0 measured)
latency change    = 0.146648
throughput change = 0.210145
Warmed up ...Time used is 1500 cycles
Class 0:
Packet latency average = 16.0972
	minimum = 7
	maximum = 42
Network latency average = 16.0972
	minimum = 7
	maximum = 42
Slowest packet = 4816
Flit latency average = 16.3919
	minimum = 7
	maximum = 42
Slowest flit = 4816
Fragmentation average = 0
	minimum = 0
	maximum = 0
Injected packet rate average = 0.009125
	minimum = 0.002 (at node 3)
	maximum = 0.018 (at node 15)
Accepted packet rate average = 0.00925
	minimum = 0.002 (at node 3)
	maximum = 0.018 (at node 15)
Injected flit rate average = 0.009125
	minimum = 0.002 (at node 3)
	maximum = 0.018 (at node 15)
Accepted flit rate average= 0.00925
	minimum = 0.002 (at node 3)
	maximum = 0.018 (at node 15)
Injected packet length average = 1
Accepted packet length average = 1
Total in-flight flits = 1 (1 measured)
latency change    = 0.377499
throughput change = 0.0675676
Class 0:
Packet latency average = 17.2671
	minimum = 7
	maximum = 42
Network latency average = 17.2671
	minimum = 7
	maximum = 42
Slowest packet = 4816
Flit latency average = 17.3865
	minimum = 7
	maximum = 42
Slowest flit = 4816
Fragmentation average = 0
	minimum = 0
	maximum = 0
Injected packet rate average = 0.010125
	minimum = 0.004 (at node 9)
	maximum = 0.019 (at node 0)
Accepted packet rate average = 0.0101875
	minimum = 0.004 (at node 6)
	maximum = 0.019 (at node 0)
Injected flit rate average = 0.010125
	minimum = 0.004 (at node 9)
	maximum = 0.019 (at node 0)
Accepted flit rate average= 0.0101875
	minimum = 0.004 (at node 6)
	maximum = 0.019 (at node 0)
Injected packet length average = 1
Accepted packet length average = 1
Total in-flight flits = 1 (1 measured)
latency change    = 0.0677508
throughput change = 0.0920245
Class 0:
Packet latency average = 18.021
	minimum = 7
	maximum = 42
Network latency average = 18.021
	minimum = 7
	maximum = 42
Slowest packet = 4816
Flit latency average = 18.0958
	minimum = 7
	maximum = 42
Slowest flit = 4816
Fragmentation average = 0
	minimum = 0
	maximum = 0
Injected packet rate average = 0.00995833
	minimum = 0.006 (at node 3)
	maximum = 0.014 (at node 10)
Accepted packet rate average = 0.01
	minimum = 0.006 (at node 9)
	maximum = 0.014 (at node 10)
Injected flit rate average = 0.00995833
	minimum = 0.006 (at node 3)
	maximum = 0.014 (at node 10)
Accepted flit rate average= 0.01
	minimum = 0.006 (at node 9)
	maximum = 0.014 (at node 10)
Injected packet length average = 1
Accepted packet length average = 1
Total in-flight flits = 1 (1 measured)
latency change    = 0.041836
throughput change = 0.01875
Class 0:
Packet latency average = 18.4049
	minimum = 7
	maximum = 42
Network latency average = 18.4049
	minimum = 7
	maximum = 42
Slowest packet = 4816
Flit latency average = 18.4573
	minimum = 7
	maximum = 42
Slowest flit = 4816
Fragmentation average = 0
	minimum = 0
	maximum = 0
Injected packet rate average = 0.01025
	minimum = 0.0075 (at node 6)
	maximum = 0.015 (at node 15)
Accepted packet rate average = 0.01025
	minimum = 0.0075 (at node 6)
	maximum = 0.015 (at node 15)
Injected flit rate average = 0.01025
	minimum = 0.0075 (at node 6)
	maximum = 0.015 (at node 15)
Accepted flit rate average= 0.01025
	minimum = 0.0075 (at node 6)
	maximum = 0.015 (at node 15)
Injected packet length average = 1
Accepted packet length average = 1
Total in-flight flits = 2 (2 measured)
latency change    = 0.0208585
throughput change = 0.0243902
Class 0:
Packet latency average = 18.6275
	minimum = 7
	maximum = 42
Network latency average = 18.6275
	minimum = 7
	maximum = 42
Slowest packet = 4816
Flit latency average = 18.6692
	minimum = 7
	maximum = 42
Slowest flit = 4816
Fragmentation average = 0
	minimum = 0
	maximum = 0
Injected packet rate average = 0.0101
	minimum = 0.0076 (at node 7)
	maximum = 0.0136 (at node 15)
Accepted packet rate average = 0.01005
	minimum = 0.0076 (at node 13)
	maximum = 0.0136 (at node 15)
Injected flit rate average = 0.0101
	minimum = 0.0076 (at node 7)
	maximum = 0.0136 (at node 15)
Accepted flit rate average= 0.01005
	minimum = 0.0076 (at node 13)
	maximum = 0.0136 (at node 15)
Injected packet length average = 1
Accepted packet length average = 1
Total in-flight flits = 4 (4 measured)
latency change    = 0.0119496
throughput change = 0.0199005
Draining all recorded packets ...
Draining remaining packets ...
Time taken is 4041 cycles
Class 0:
Packet latency average = 21.3235
	minimum = 7
	maximum = 37
Network latency average = 21.3235
	minimum = 7
	maximum = 37
Slowest packet = 5182
Flit latency average = 21.3235
	minimum = 7
	maximum = 37
Slowest flit = 5182
Fragmentation average = 0
	minimum = 0
	maximum = 0
Injected packet rate average = 0.00875
	minimum = 0.004 (at node 6)
	maximum = 0.016 (at node 3)
Accepted packet rate average = 0.0085
	minimum = 0.004 (at node 6)
	maximum = 0.016 (at node 12)
Injected flit rate average = 0.00875
	minimum = 0.004 (at node 6)
	maximum = 0.016 (at node 3)
Accepted flit rate average= 0.0085
	minimum = 0.004 (at node 6)
	maximum = 0.016 (at node 12)
Injected packet length average = 1
Accepted packet length average = 1
Total in-flight flits = 2 (0 measured)
latency change    = 1
throughput change = 1
Class 0:
Packet latency average = 21.1948
	minimum = 7
	maximum = 39
Network latency average = 21.1948
	minimum = 7
	maximum = 39
Slowest packet = 5276
Flit latency average = 21.1948
	minimum = 7
	maximum = 39
Slowest flit = 5276
Fragmentation average = 0
	minimum = 0
	maximum = 0
Injected packet rate average = 0.009625
	minimum = 0.005 (at node 4)
	maximum = 0.017 (at node 12)
Accepted packet rate average = 0.009625
	minimum = 0.005 (at node 1)
	maximum = 0.017 (at node 3)
Injected flit rate average = 0.009625
	minimum = 0.005 (at node 4)
	maximum = 0.017 (at node 12)
Accepted flit rate average= 0.009625
	minimum = 0.005 (at node 1)
	maximum = 0.017 (at node 3)
Injected packet length average = 1
Accepted packet length average = 1
Total in-flight flits = 0 (0 measured)
latency change    = 0.00607339
throughput change = 0.116883
Class 0:
Packet latency average = 21.8889
	minimum = 7
	maximum = 37
Network latency average = 21.8889
	minimum = 7
	maximum = 37
Slowest packet = 5338
Flit latency average = 21.8889
	minimum = 7
	maximum = 37
Slowest flit = 5338
Fragmentation average = 0
	minimum = 0
	maximum = 0
Injected packet rate average = 0.009375
	minimum = 0.004 (at node 5)
	maximum = 0.018 (at node 8)
Accepted packet rate average = 0.009
	minimum = 0.004 (at node 5)
	maximum = 0.018 (at node 2)
Injected flit rate average = 0.009375
	minimum = 0.004 (at node 5)
	maximum = 0.018 (at node 8)
Accepted flit rate average= 0.009
	minimum = 0.004 (at node 5)
	maximum = 0.018 (at node 2)
Injected packet length average = 1
Accepted packet length average = 1
Total in-flight flits = 3 (0 measured)
latency change    = 0.0317094
throughput change = 0.0694444
Warmed up ...Time used is 1500 cycles
Class 0:
Packet latency average = 19.9844
	minimum = 7
	maximum = 37
Network latency average = 19.9844
	minimum = 7
	maximum = 37
Slowest packet = 5413
Flit latency average = 20.4478
	minimum = 7
	maximum = 37
Slowest flit = 5405
Fragmentation average = 0
	minimum = 0
	maximum = 0
Injected packet rate average = 0.008125
	minimum = 0.004 (at node 2)
	maximum = 0.014 (at node 9)
Accepted packet rate average = 0.008375
	minimum = 0.004 (at node 8)
	maximum = 0.014 (at node 6)
Injected flit rate average = 0.008125
	minimum = 0.004 (at node 2)
	maximum = 0.014 (at node 9)
Accepted flit rate average= 0.008375
	minimum = 0.004 (at node 8)
	maximum = 0.014 (at node 6)
Injected packet length average = 1
Accepted packet length average = 1
Total in-flight flits = 1 (1 measured)
latency change    = 0.0953001
throughput change = 0.0746269
Class 0:
Packet latency average = 21.1884
	minimum = 7
	maximum = 37
Network latency average = 21.1884
	minimum = 7
	maximum = 37
Slowest packet = 5413
Flit latency average = 21.383
	minimum = 7
	maximum = 37
Slowest flit = 5405
Fragmentation average = 0
	minimum = 0
	maximum = 0
Injected packet rate average = 0.0086875
	minimum = 0.004 (at node 11)
	maximum = 0.015 (at node 12)
Accepted packet rate average = 0.0088125
	minimum = 0.004 (at node 14)
	maximum = 0.015 (at node 7)
Injected flit rate average = 0.0086875
	minimum = 0.004 (at node 11)
	maximum = 0.015 (at node 12)
Accepted flit rate average= 0.0088125
	minimum = 0.004 (at node 14)
	maximum = 0.015 (at node 7)
Injected packet length average = 1
Accepted packet length average = 1
Total in-flight flits = 1 (1 measured)
latency change    = 0.056825
throughput change = 0.0496454
Class 0:
Packet latency average = 20.2679
	minimum = 7
	maximum = 38
Network latency average = 20.2679
	minimum = 7
	maximum = 38
Slowest packet = 5600
Flit latency average = 20.4104
	minimum = 7
	maximum = 38
Slowest flit = 5600
Fragmentation average = 0
	minimum = 0
	maximum = 0
Injected packet rate average = 0.00883333
	minimum = 0.004 (at node 0)
	maximum = 0.0126667 (at node 12)
Accepted packet rate average = 0.00883333
	minimum = 0.004 (at node 0)
	maximum = 0.0133333 (at node 7)
Injected flit rate average = 0.00883333
	minimum = 0.004 (at node 0)
	maximum = 0.0126667 (at node 12)
Accepted flit rate average= 0.00883333
	minimum = 0.004 (at node 0)
	maximum = 0.0133333 (at node 7)
Injected packet length average = 1
Accepted packet length average = 1
Total in-flight flits = 3 (3 measured)
latency change    = 0.0454147
throughput change = 0.00235849
Class 0:
Packet latency average = 20.0137
	minimum = 7
	maximum = 38
Network latency average = 20.0137
	minimum = 7
	maximum = 38
Slowest packet = 5600
Flit latency average = 20.119
	minimum = 7
	maximum = 38
Slowest flit = 5600
Fragmentation average = 0
	minimum = 0
	maximum = 0
Injected packet rate average = 0.00921875
	minimum = 0.0055 (at node 11)
	maximum = 0.014 (at node 6)
Accepted packet rate average = 0.0091875
	minimum = 0.0055 (at node 0)
	maximum = 0.0135 (at node 9)
Injected flit rate average = 0.00921875
	minimum = 0.0055 (at node 11)
	maximum = 0.014 (at node 6)
Accepted flit rate average= 0.0091875
	minimum = 0.0055 (at node 0)
	maximum = 0.0135 (at node 9)
Injected packet length average = 1
Accepted packet length average = 1
Total in-flight flits = 4 (4 measured)
latency change    = 0.0127011
throughput change = 0.0385488
Class 0:
Packet latency average = 20.0528
	minimum = 7
	maximum = 38
Network latency average = 20.0528
	minimum = 7
	maximum = 38
Slowest packet = 5600
Flit latency average = 20.1377
	minimum = 7
	maximum = 38
Slowest flit = 5600
Fragmentation average = 0
	minimum = 0
	maximum = 0
Injected packet rate average = 0.009125
	minimum = 0.0056 (at node 11)
	maximum = 0.0124 (at node 13)
Accepted packet rate average = 0.009075
	minimum = 0.0056 (at node 14)
	maximum = 0.0128 (at node 7)
Injected flit rate average = 0.009125
	minimum = 0.0056 (at node 11)
	maximum = 0.0124 (at node 13)
Accepted flit rate average= 0.009075
	minimum = 0.0056 (at node 14)
	maximum = 0.0128 (at node 7)
Injected packet length average = 1
Accepted packet length average = 1
Total in-flight flits = 5 (5 measured)
latency change    = 0.00194647
throughput change = 0.0123967
Draining all recorded packets ...
Draining remaining packets ...
Time taken is 4059 cycles
Class 0:
Packet latency average = 18.625
	minimum = 7
	maximum = 37
Network latency average = 18.625
	minimum = 7
	maximum = 37
Slowest packet = 5780
Flit latency average = 18.625
	minimum = 7
	maximum = 37
Slowest flit = 5780
Fragmentation average = 0
	minimum = 0
	maximum = 0
Injected packet rate average = 0.010625
	minimum = 0.002 (at node 7)
	maximum = 0.02 (at node 1)
Accepted packet rate average = 0.01
	minimum = 0.002 (at node 13)
	maximum = 0.018 (at node 1)
Injected flit rate average = 0.010625
	minimum = 0.002 (at node 7)
	maximum = 0.02 (at node 1)
Accepted flit rate average= 0.01
	minimum = 0.002 (at node 13)
	maximum = 0.018 (at node 1)
Injected packet length average = 1
Accepted packet length average = 1
Total in-flight flits = 5 (0 measured)
latency change    = 1
throughput change = 1
Class 0:
Packet latency average = 20.2171
	minimum = 7
	maximum = 37
Network latency average = 20.2171
	minimum = 7
	maximum = 37
Slowest packet = 5780
Flit latency average = 20.2171
	minimum = 7
	maximum = 37
Slowest flit = 5780
Fragmentation average = 0
	minimum = 0
	maximum = 0
Injected packet rate average = 0.00975
	minimum = 0.004 (at node 9)
	maximum = 0.014 (at node 1)
Accepted packet rate average = 0.0095
	minimum = 0.004 (at node 6)
	maximum = 0.014 (at node 3)
Injected flit rate average = 0.00975
	minimum = 0.004 (at node 9)
	maximum = 0.014 (at node 1)
Accepted flit rate average= 0.0095
	minimum = 0.004 (at node 6)
	maximum = 0.014 (at node 3)
Injected packet length average = 1
Accepted packet length average = 1
Total in-flight flits = 4 (0 measured)
latency change    = 0.0787504
throughput change = 0.0526316
Class 0:
Packet latency average = 19.3953
	minimum = 7
	maximum = 37
Network latency average = 19.3953
	minimum = 7
	maximum = 37
Slowest packet = 5935
Flit latency average = 19.3953
	minimum = 7
	maximum = 37
Slowest flit = 5935
Fragmentation average = 0
	minimum = 0
	maximum = 0
Injected packet rate average = 0.0105
	minimum = 0.002 (at node 7)
	maximum = 0.016 (at node 0)
Accepted packet rate average = 0.01075
	minimum = 0.002 (at node 13)
	maximum = 0.016 (at node 0)
Injected flit rate average = 0.0105
	minimum = 0.002 (at node 7)
	maximum = 0.016 (at node 0)
Accepted flit rate average= 0.01075
	minimum = 0.002 (at node 13)
	maximum = 0.016 (at node 0)
Injected packet length average = 1
Accepted packet length average = 1
Total in-flight flits = 2 (0 measured)
latency change    = 0.0423687
throughput change = 0.116279
Warmed up ...Time used is 1500 cycles
Class 0:
Packet latency average = 19.1613
	minimum = 7
	maximum = 37
Network latency average = 19.1613
	minimum = 7
	maximum = 37
Slowest packet = 6025
Flit latency average = 19.4316
	minimum = 7
	maximum = 37
Slowest flit = 6015
Fragmentation average = 0
	minimum = 0
	maximum = 0
Injected packet rate average = 0.012
	minimum = 0.004 (at node 0)
	maximum = 0.02 (at node 11)
Accepted packet rate average = 0.011875
	minimum = 0.004 (at node 0)
	maximum = 0.02 (at node 14)
Injected flit rate average = 0.012
	minimum = 0.004 (at node 0)
	maximum = 0.02 (at node 11)
Accepted flit rate average= 0.011875
	minimum = 0.004 (at node 0)
	maximum = 0.02 (at node 14)
Injected packet length average = 1
Accepted packet length average = 1
Total in-flight flits = 3 (3 measured)
latency change    = 0.0122152
throughput change = 0.0947368
Class 0:
Packet latency average = 19.1163
	minimum = 7
	maximum = 40
Network latency average = 19.1163
	minimum = 7
	maximum = 40
Slowest packet = 6116
Flit latency average = 19.2644
	minimum = 7
	maximum = 40
Slowest flit = 6116
Fragmentation average = 0
	minimum = 0
	maximum = 0
Injected packet rate average = 0.0109375
	minimum = 0.005 (at node 1)
	maximum = 0.017 (at node 6)
Accepted packet rate average = 0.010875
	minimum = 0.004 (at node 4)
	maximum = 0.017 (at node 9)
Injected flit rate average = 0.0109375
	minimum = 0.005 (at node 1)
	maximum = 0.017 (at node 6)
Accepted flit rate average= 0.010875
	minimum = 0.004 (at node 4)
	maximum = 0.017 (at node 9)
Injected packet length average = 1
Accepted packet length average = 1
Total in-flight flits = 3 (3 measured)
latency change    = 0.0023546
throughput change = 0.091954
Class 0:
Packet latency average = 18.6
	minimum = 7
	maximum = 40
Network latency average = 18.6
	minimum = 7
	maximum = 40
Slowest packet = 6116
Flit latency average = 18.7107
	minimum = 7
	maximum = 40
Slowest flit = 6116
Fragmentation average = 0
	minimum = 0
	maximum = 0
Injected packet rate average = 0.0101667
	minimum = 0.006 (at node 13)
	maximum = 0.016 (at node 6)
Accepted packet rate average = 0.0100833
	minimum = 0.006 (at node 7)
	maximum = 0.016 (at node 14)
Injected flit rate average = 0.0101667
	minimum = 0.006 (at node 13)
	maximum = 0.016 (at node 6)
Accepted flit rate average= 0.0100833
	minimum = 0.006 (at node 7)
	maximum = 0.016 (at node 14)
Injected packet length average = 1
Accepted packet length average = 1
Total in-flight flits = 4 (4 measured)
latency change    = 0.0277569
throughput change = 0.0785124
Class 0:
Packet latency average = 19.2399
	minimum = 7
	maximum = 40
Network latency average = 19.2399
	minimum = 7
	maximum = 40
Slowest packet = 6116
Flit latency average = 19.3189
	minimum = 7
	maximum = 40
Slowest flit = 6116
Fragmentation average = 0
	minimum = 0
	maximum = 0
Injected packet rate average = 0.0100938
	minimum = 0.0075 (at node 13)
	maximum = 0.014 (at node 11)
Accepted packet rate average = 0.0100938
	minimum = 0.007 (at node 7)
	maximum = 0.0135 (at node 14)
Injected flit rate average = 0.0100938
	minimum = 0.0075 (at node 13)
	maximum = 0.014 (at node 11)
Accepted flit rate average= 0.0100938
	minimum = 0.007 (at node 7)
	maximum = 0.0135 (at node 14)
Injected packet length average = 1
Accepted packet length average = 1
Total in-flight flits = 2 (2 measured)
latency change    = 0.0332578
throughput change = 0.00103199
Class 0:
Packet latency average = 19.1247
	minimum = 7
	maximum = 40
Network latency average = 19.1247
	minimum = 7
	maximum = 40
Slowest packet = 6116
Flit latency average = 19.1873
	minimum = 7
	maximum = 40
Slowest flit = 6116
Fragmentation average = 0
	minimum = 0
	maximum = 0
Injected packet rate average = 0.010375
	minimum = 0.008 (at node 13)
	maximum = 0.0136 (at node 2)
Accepted packet rate average = 0.010275
	minimum = 0.008 (at node 4)
	maximum = 0.0128 (at node 8)
Injected flit rate average = 0.010375
	minimum = 0.008 (at node 13)
	maximum = 0.0136 (at node 2)
Accepted flit rate average= 0.010275
	minimum = 0.008 (at node 4)
	maximum = 0.0128 (at node 8)
Injected packet length average = 1
Accepted packet length average = 1
Total in-flight flits = 6 (6 measured)
latency change    = 0.00602263
throughput change = 0.0176399
Class 0:
Packet latency average = 19.1565
	minimum = 7
	maximum = 40
Network latency average = 19.1565
	minimum = 7
	maximum = 40
Slowest packet = 6116
Flit latency average = 19.2085
	minimum = 7
	maximum = 40
Slowest flit = 6116
Fragmentation average = 0
	minimum = 0
	maximum = 0
Injected packet rate average = 0.0103125
	minimum = 0.008 (at node 3)
	maximum = 0.013 (at node 7)
Accepted packet rate average = 0.0102917
	minimum = 0.00766667 (at node 5)
	maximum = 0.013 (at node 13)
Injected flit rate average = 0.0103125
	minimum = 0.008 (at node 3)
	maximum = 0.013 (at node 7)
Accepted flit rate average= 0.0102917
	minimum = 0.00766667 (at node 5)
	maximum = 0.013 (at node 13)
Injected packet length average = 1
Accepted packet length average = 1
Total in-flight flits = 3 (3 measured)
latency change    = 0.00166052
throughput change = 0.00161943
Draining all recorded packets ...
Draining remaining packets ...
Time taken is 4533 cycles
Class 0:
Packet latency average = 20.2907
	minimum = 7
	maximum = 37
Network latency average = 20.2907
	minimum = 7
	maximum = 37
Slowest packet = 6532
Flit latency average = 20.2907
	minimum = 7
	maximum = 37
Slowest flit = 6532
Fragmentation average = 0
	minimum = 0
	maximum = 0
Injected packet rate average = 0.011
	minimum = 0.004 (at node 6)
	maximum = 0.018 (at node 2)
Accepted packet rate average = 0.01075
	minimum = 0.002 (at node 9)
	maximum = 0.018 (at node 8)
Injected flit rate average = 0.011
	minimum = 0.004 (at node 6)
	maximum = 0.018 (at node 2)
Accepted flit rate average= 0.01075
	minimum = 0.002 (at node 9)
	maximum = 0.018 (at node 8)
Injected packet length average = 1
Accepted packet length average = 1
Total in-flight flits = 2 (0 measured)
latency change    = 1
throughput change = 1
Class 0:
Packet latency average = 20.3571
	minimum = 7
	maximum = 38
Network latency average = 20.3571
	minimum = 7
	maximum = 38
Slowest packet = 6627
Flit latency average = 20.3571
	minimum = 7
	maximum = 38
Slowest flit = 6627
Fragmentation average = 0
	minimum = 0
	maximum = 0
Injected packet rate average = 0.0105
	minimum = 0.005 (at node 0)
	maximum = 0.015 (at node 2)
Accepted packet rate average = 0.0105
	minimum = 0.005 (at node 0)
	maximum = 0.015 (at node 8)
Injected flit rate average = 0.0105
	minimum = 0.005 (at node 0)
	maximum = 0.015 (at node 2)
Accepted flit rate average= 0.0105
	minimum = 0.005 (at node 0)
	maximum = 0.015 (at node 8)
Injected packet length average = 1
Accepted packet length average = 1
Total in-flight flits = 0 (0 measured)
latency change    = 0.00326397
throughput change = 0.0238095
Class 0:
Packet latency average = 21.0789
	minimum = 7
	maximum = 37
Network latency average = 21.0789
	minimum = 7
	maximum = 37
Slowest packet = 6702
Flit latency average = 21.0789
	minimum = 7
	maximum = 37
Slowest flit = 6702
Fragmentation average = 0
	minimum = 0
	maximum = 0
Injected packet rate average = 0.00975
	minimum = 0.004 (at node 0)
	maximum = 0.014 (at node 4)
Accepted packet rate average = 0.0095
	minimum = 0.004 (at node 0)
	maximum = 0.014 (at node 3)
Injected flit rate average = 0.00975
	minimum = 0.004 (at node 0)
	maximum = 0.014 (at node 4)
Accepted flit rate average= 0.0095
	minimum = 0.004 (at node 0)
	maximum = 0.014 (at node 3)
Injected packet length average = 1
Accepted packet length average = 1
Total in-flight flits = 2 (0 measured)
latency change    = 0.0342429
throughput change = 0.105263
Warmed up ...Time used is 1500 cycles
Class 0:
Packet latency average = 18.1341
	minimum = 7
	maximum = 40
Network latency average = 18.1341
	minimum = 7
	maximum = 40
Slowest packet = 6793
Flit latency average = 17.9881
	minimum = 7
	maximum = 40
Slowest flit = 6793
Fragmentation average = 0
	minimum = 0
	maximum = 0
Injected packet rate average = 0.010375
	minimum = 0.002 (at node 13)
	maximum = 0.014 (at node 1)
Accepted packet rate average = 0.0105
	minimum = 0.002 (at node 7)
	maximum = 0.016 (at node 1)
Injected flit rate average = 0.010375
	minimum = 0.002 (at node 13)
	maximum = 0.014 (at node 1)
Accepted flit rate average= 0.0105
	minimum = 0.002 (at node 7)
	maximum = 0.016 (at node 1)
Injected packet length average = 1
Accepted packet length average = 1
Total in-flight flits = 1 (1 measured)
latency change    = 0.16239
throughput change = 0.0952381
Class 0:
Packet latency average = 18.8684
	minimum = 7
	maximum = 40
Network latency average = 18.8684
	minimum = 7
	maximum = 40
Slowest packet = 6793
Flit latency average = 18.7792
	minimum = 7
	maximum = 40
Slowest flit = 6793
Fragmentation average = 0
	minimum = 0
	maximum = 0
Injected packet rate average = 0.0098125
	minimum = 0.005 (at node 13)
	maximum = 0.013 (at node 14)
Accepted packet rate average = 0.009625
	minimum = 0.005 (at node 7)
	maximum = 0.013 (at node 1)
Injected flit rate average = 0.0098125
	minimum = 0.005 (at node 13)
	maximum = 0.013 (at node 14)
Accepted flit rate average= 0.009625
	minimum = 0.005 (at node 7)
	maximum = 0.013 (at node 1)
Injected packet length average = 1
Accepted packet length average = 1
Total in-flight flits = 5 (5 measured)
latency change    = 0.0389155
throughput change = 0.0909091
Class 0:
Packet latency average = 18.2562
	minimum = 7
	maximum = 40
Network latency average = 18.2562
	minimum = 7
	maximum = 40
Slowest packet = 6793
Flit latency average = 18.2049
	minimum = 7
	maximum = 40
Slowest flit = 6793
Fragmentation average = 0
	minimum = 0
	maximum = 0
Injected packet rate average = 0.0101667
	minimum = 0.00666667 (at node 2)
	maximum = 0.0153333 (at node 14)
Accepted packet rate average = 0.0101667
	minimum = 0.00666667 (at node 2)
	maximum = 0.0153333 (at node 11)
Injected flit rate average = 0.0101667
	minimum = 0.00666667 (at node 2)
	maximum = 0.0153333 (at node 14)
Accepted flit rate average= 0.0101667
	minimum = 0.00666667 (at node 2)
	maximum = 0.0153333 (at node 11)
Injected packet length average = 1
Accepted packet length average = 1
Total in-flight flits = 2 (2 measured)
latency change    = 0.0335351
throughput change = 0.0532787
Class 0:
Packet latency average = 18.9348
	minimum = 7
	maximum = 40
Network latency average = 18.9348
	minimum = 7
	maximum = 40
Slowest packet = 6793
Flit latency average = 18.892
	minimum = 7
	maximum = 40
Slowest flit = 6793
Fragmentation average = 0
	minimum = 0
	maximum = 0
Injected packet rate average = 0.0101875
	minimum = 0.008 (at node 11)
	maximum = 0.0145 (at node 14)
Accepted packet rate average = 0.010125
	minimum = 0.008 (at node 6)
	maximum = 0.014 (at node 11)
Injected flit rate average = 0.0101875
	minimum = 0.008 (at node 11)
	maximum = 0.0145 (at node 14)
Accepted flit rate average= 0.010125
	minimum = 0.008 (at node 6)
	maximum = 0.014 (at node 11)
Injected packet length average = 1
Accepted packet length average = 1
Total in-flight flits = 4 (4 measured)
latency change    = 0.035838
throughput change = 0.00411523
Class 0:
Packet latency average = 18.803
	minimum = 7
	maximum = 40
Network latency average = 18.803
	minimum = 7
	maximum = 40
Slowest packet = 6793
Flit latency average = 18.7692
	minimum = 7
	maximum = 40
Slowest flit = 6793
Fragmentation average = 0
	minimum = 0
	maximum = 0
Injected packet rate average = 0.010025
	minimum = 0.0072 (at node 12)
	maximum = 0.0148 (at node 14)
Accepted packet rate average = 0.010075
	minimum = 0.0072 (at node 3)
	maximum = 0.0148 (at node 11)
Injected flit rate average = 0.010025
	minimum = 0.0072 (at node 12)
	maximum = 0.0148 (at node 14)
Accepted flit rate average= 0.010075
	minimum = 0.0072 (at node 3)
	maximum = 0.0148 (at node 11)
Injected packet length average = 1
Accepted packet length average = 1
Total in-flight flits = 0 (0 measured)
latency change    = 0.007009
throughput change = 0.00496278
Class 0:
Packet latency average = 18.7172
	minimum = 7
	maximum = 40
Network latency average = 18.7172
	minimum = 7
	maximum = 40
Slowest packet = 6793
Flit latency average = 18.6901
	minimum = 7
	maximum = 40
Slowest flit = 6793
Fragmentation average = 0
	minimum = 0
	maximum = 0
Injected packet rate average = 0.0104375
	minimum = 0.007 (at node 12)
	maximum = 0.0143333 (at node 14)
Accepted packet rate average = 0.0103542
	minimum = 0.00666667 (at node 3)
	maximum = 0.0143333 (at node 11)
Injected flit rate average = 0.0104375
	minimum = 0.007 (at node 12)
	maximum = 0.0143333 (at node 14)
Accepted flit rate average= 0.0103542
	minimum = 0.00666667 (at node 3)
	maximum = 0.0143333 (at node 11)
Injected packet length average = 1
Accepted packet length average = 1
Total in-flight flits = 6 (6 measured)
latency change    = 0.00458514
throughput change = 0.0269618
Draining all recorded packets ...
Draining remaining packets ...
Time taken is 4568 cycles
Class 0:
Packet latency average = 18.4194
	minimum = 7
	maximum = 37
Network latency average = 18.4194
	minimum = 7
	maximum = 37
Slowest packet = 7269
Flit latency average = 18.4194
	minimum = 7
	maximum = 37
Slowest flit = 7269
Fragmentation average = 0
	minimum = 0
	maximum = 0
Injected packet rate average = 0.011625
	minimum = 0 (at node 12)
	maximum = 0.022 (at node 2)
Accepted packet rate average = 0.011625
	minimum = 0 (at node 3)
	maximum = 0.022 (at node 8)
Injected flit rate average = 0.011625
	minimum = 0 (at node 12)
	maximum = 0.022 (at node 2)
Accepted flit rate average= 0.011625
	minimum = 0 (at node 3)
	maximum = 0.022 (at node 8)
Injected packet length average = 1
Accepted packet length average = 1
Total in-flight flits = 0 (0 measured)
latency change    = 1
throughput change = 1
Class 0:
Packet latency average = 19.4
	minimum = 7
	maximum = 42
Network latency average = 19.4
	minimum = 7
	maximum = 42
Slowest packet = 7384
Flit latency average = 19.4
	minimum = 7
	maximum = 42
Slowest flit = 7384
Fragmentation average = 0
	minimum = 0
	maximum = 0
Injected packet rate average = 0.0108125
	minimum = 0.006 (at node 12)
	maximum = 0.015 (at node 7)
Accepted packet rate average = 0.010625
[...]
	minimum = 7
	maximum = 37
Slowest packet = 31660
Flit latency average = 19.9507
	minimum = 7
	maximum = 37
Slowest flit = 31660
Fragmentation average = 0
	minimum = 0
	maximum = 0
Injected packet rate average = 0.009
	minimum = 0.002 (at node 15)
	maximum = 0.014 (at node 6)
Accepted packet rate average = 0.008875
	minimum = 0.002 (at node 15)
	maximum = 0.014 (at node 9)
Injected flit rate average = 0.009
	minimum = 0.002 (at node 15)
	maximum = 0.014 (at node 6)
Accepted flit rate average= 0.008875
	minimum = 0.002 (at node 15)
	maximum = 0.014 (at node 9)
Injected packet length average = 1
Accepted packet length average = 1
Total in-flight flits = 2 (0 measured)
latency change    = 0.0427016
throughput change = 0.0704225
Class 0:
Packet latency average = 19.4167
	minimum = 7
	maximum = 37
Network latency average = 19.4167
	minimum = 7
	maximum = 37
Slowest packet = 31800
Flit latency average = 19.4167
	minimum = 7
	maximum = 37
Slowest flit = 31800
Fragmentation average = 0
	minimum = 0
	maximum = 0
Injected packet rate average = 0.009125
	minimum = 0.002 (at node 7)
	maximum = 0.014 (at node 5)
Accepted packet rate average = 0.009
	minimum = 0.002 (at node 13)
	maximum = 0.014 (at node 5)
Injected flit rate average = 0.009125
	minimum = 0.002 (at node 7)
	maximum = 0.014 (at node 5)
Accepted flit rate average= 0.009
	minimum = 0.002 (at node 13)
	maximum = 0.014 (at node 5)
Injected packet length average = 1
Accepted packet length average = 1
Total in-flight flits = 3 (0 measured)
latency change    = 0.0275041
throughput change = 0.0138889
Warmed up ...Time used is 1500 cycles
Class 0:
Packet latency average = 18.8194
	minimum = 7
	maximum = 38
Network latency average = 18.8194
	minimum = 7
	maximum = 38
Slowest packet = 31920
Flit latency average = 19.0133
	minimum = 7
	maximum = 38
Slowest flit = 31920
Fragmentation average = 0
	minimum = 0
	maximum = 0
Injected packet rate average = 0.00925
	minimum = 0.002 (at node 8)
	maximum = 0.014 (at node 10)
Accepted packet rate average = 0.009375
	minimum = 0.004 (at node 2)
	maximum = 0.014 (at node 10)
Injected flit rate average = 0.00925
	minimum = 0.002 (at node 8)
	maximum = 0.014 (at node 10)
Accepted flit rate average= 0.009375
	minimum = 0.004 (at node 2)
	maximum = 0.014 (at node 10)
Injected packet length average = 1
Accepted packet length average = 1
Total in-flight flits = 2 (2 measured)
latency change    = 0.0317343
throughput change = 0.04
Class 0:
Packet latency average = 18.777
	minimum = 7
	maximum = 38
Network latency average = 18.777
	minimum = 7
	maximum = 38
Slowest packet = 31920
Flit latency average = 18.8742
	minimum = 7
	maximum = 38
Slowest flit = 31920
Fragmentation average = 0
	minimum = 0
	maximum = 0
Injected packet rate average = 0.0095
	minimum = 0.003 (at node 8)
	maximum = 0.012 (at node 7)
Accepted packet rate average = 0.0094375
	minimum = 0.004 (at node 2)
	maximum = 0.012 (at node 7)
Injected flit rate average = 0.0095
	minimum = 0.003 (at node 8)
	maximum = 0.012 (at node 7)
Accepted flit rate average= 0.0094375
	minimum = 0.004 (at node 2)
	maximum = 0.012 (at node 7)
Injected packet length average = 1
Accepted packet length average = 1
Total in-flight flits = 4 (4 measured)
latency change    = 0.00225901
throughput change = 0.00662252
Class 0:
Packet latency average = 18.7793
	minimum = 7
	maximum = 38
Network latency average = 18.7793
	minimum = 7
	maximum = 38
Slowest packet = 31920
Flit latency average = 18.8444
	minimum = 7
	maximum = 38
Slowest flit = 31920
Fragmentation average = 0
	minimum = 0
	maximum = 0
Injected packet rate average = 0.00925
	minimum = 0.006 (at node 8)
	maximum = 0.0126667 (at node 10)
Accepted packet rate average = 0.009375
	minimum = 0.00666667 (at node 2)
	maximum = 0.0126667 (at node 10)
Injected flit rate average = 0.00925
	minimum = 0.006 (at node 8)
	maximum = 0.0126667 (at node 10)
Accepted flit rate average= 0.009375
	minimum = 0.00666667 (at node 2)
	maximum = 0.0126667 (at node 10)
Injected packet length average = 1
Accepted packet length average = 1
Total in-flight flits = 0 (0 measured)
latency change    = 0.000119933
throughput change = 0.00666667
Draining all recorded packets ...
Draining remaining packets ...
Time taken is 3001 cycles
Class 0:
Packet latency average = 20.2
	minimum = 7
	maximum = 37
Network latency average = 20.2
	minimum = 7
	maximum = 37
Slowest packet = 32099
Flit latency average = 20.2
	minimum = 7
	maximum = 37
Slowest flit = 32099
Fragmentation average = 0
	minimum = 0
	maximum = 0
Injected packet rate average = 0.010125
	minimum = 0.002 (at node 1)
	maximum = 0.018 (at node 3)
Accepted packet rate average = 0.009375
	minimum = 0.002 (at node 4)
	maximum = 0.018 (at node 12)
Injected flit rate average = 0.010125
	minimum = 0.002 (at node 1)
	maximum = 0.018 (at node 3)
Accepted flit rate average= 0.009375
	minimum = 0.002 (at node 4)
	maximum = 0.018 (at node 12)
Injected packet length average = 1
Accepted packet length average = 1
Total in-flight flits = 6 (0 measured)
latency change    = 1
throughput change = 1
Class 0:
Packet latency average = 19.2078
	minimum = 7
	maximum = 37
Network latency average = 19.2078
	minimum = 7
	maximum = 37
Slowest packet = 32099
Flit latency average = 19.2078
	minimum = 7
	maximum = 37
Slowest flit = 32099
Fragmentation average = 0
	minimum = 0
	maximum = 0
Injected packet rate average = 0.00975
	minimum = 0.005 (at node 0)
	maximum = 0.014 (at node 10)
Accepted packet rate average = 0.009625
	minimum = 0.005 (at node 0)
	maximum = 0.014 (at node 10)
Injected flit rate average = 0.00975
	minimum = 0.005 (at node 0)
	maximum = 0.014 (at node 10)
Accepted flit rate average= 0.009625
	minimum = 0.005 (at node 0)
	maximum = 0.014 (at node 10)
Injected packet length average = 1
Accepted packet length average = 1
Total in-flight flits = 2 (0 measured)
latency change    = 0.0516565
throughput change = 0.025974
Class 0:
Packet latency average = 21.7349
	minimum = 7
	maximum = 37
Network latency average = 21.7349
	minimum = 7
	maximum = 37
Slowest packet = 32251
Flit latency average = 21.7349
	minimum = 7
	maximum = 37
Slowest flit = 32251
Fragmentation average = 0
	minimum = 0
	maximum = 0
Injected packet rate average = 0.0105
	minimum = 0.002 (at node 15)
	maximum = 0.024 (at node 8)
Accepted packet rate average = 0.010375
	minimum = 0.002 (at node 15)
	maximum = 0.024 (at node 2)
Injected flit rate average = 0.0105
	minimum = 0.002 (at node 15)
	maximum = 0.024 (at node 8)
Accepted flit rate average= 0.010375
	minimum = 0.002 (at node 15)
	maximum = 0.024 (at node 2)
Injected packet length average = 1
Accepted packet length average = 1
Total in-flight flits = 3 (0 measured)
latency change    = 0.116271
throughput change = 0.0722892
Warmed up ...Time used is 1500 cycles
Class 0:
Packet latency average = 18.3026
	minimum = 7
	maximum = 37
Network latency average = 18.3026
	minimum = 7
	maximum = 37
Slowest packet = 32342
Flit latency average = 18.8861
	minimum = 7
	maximum = 37
Slowest flit = 32333
Fragmentation average = 0
	minimum = 0
	maximum = 0
Injected packet rate average = 0.00975
	minimum = 0.006 (at node 0)
	maximum = 0.022 (at node 5)
Accepted packet rate average = 0.009875
	minimum = 0.006 (at node 0)
	maximum = 0.022 (at node 2)
Injected flit rate average = 0.00975
	minimum = 0.006 (at node 0)
	maximum = 0.022 (at node 5)
Accepted flit rate average= 0.009875
	minimum = 0.006 (at node 0)
	maximum = 0.022 (at node 2)
Injected packet length average = 1
Accepted packet length average = 1
Total in-flight flits = 2 (2 measured)
latency change    = 0.187531
throughput change = 0.0506329
Class 0:
Packet latency average = 17.8264
	minimum = 7
	maximum = 37
Network latency average = 17.8264
	minimum = 7
	maximum = 37
Slowest packet = 32342
Flit latency average = 18.1497
	minimum = 7
	maximum = 37
Slowest flit = 32333
Fragmentation average = 0
	minimum = 0
	maximum = 0
Injected packet rate average = 0.0093125
	minimum = 0.005 (at node 3)
	maximum = 0.018 (at node 5)
Accepted packet rate average = 0.0091875
	minimum = 0.005 (at node 12)
	maximum = 0.018 (at node 5)
Injected flit rate average = 0.0093125
	minimum = 0.005 (at node 3)
	maximum = 0.018 (at node 5)
Accepted flit rate average= 0.0091875
	minimum = 0.005 (at node 12)
	maximum = 0.018 (at node 5)
Injected packet length average = 1
Accepted packet length average = 1
Total in-flight flits = 5 (5 measured)
latency change    = 0.0267156
throughput change = 0.0748299
Class 0:
Packet latency average = 19.0921
	minimum = 7
	maximum = 38
Network latency average = 19.0921
	minimum = 7
	maximum = 38
Slowest packet = 32495
Flit latency average = 19.2814
	minimum = 7
	maximum = 38
Slowest flit = 32495
Fragmentation average = 0
	minimum = 0
	maximum = 0
Injected packet rate average = 0.00966667
	minimum = 0.006 (at node 0)
	maximum = 0.016 (at node 9)
Accepted packet rate average = 0.009625
	minimum = 0.006 (at node 0)
	maximum = 0.016 (at node 6)
Injected flit rate average = 0.00966667
	minimum = 0.006 (at node 0)
	maximum = 0.016 (at node 9)
Accepted flit rate average= 0.009625
	minimum = 0.006 (at node 0)
	maximum = 0.016 (at node 6)
Injected packet length average = 1
Accepted packet length average = 1
Total in-flight flits = 4 (4 measured)
latency change    = 0.0662953
throughput change = 0.0454545
Class 0:
Packet latency average = 18.9655
	minimum = 7
	maximum = 38
Network latency average = 18.9655
	minimum = 7
	maximum = 38
Slowest packet = 32495
Flit latency average = 19.1025
	minimum = 7
	maximum = 38
Slowest flit = 32495
Fragmentation average = 0
	minimum = 0
	maximum = 0
Injected packet rate average = 0.0100313
	minimum = 0.006 (at node 7)
	maximum = 0.0155 (at node 9)
Accepted packet rate average = 0.0100625
	minimum = 0.006 (at node 13)
	maximum = 0.015 (at node 5)
Injected flit rate average = 0.0100313
	minimum = 0.006 (at node 7)
	maximum = 0.0155 (at node 9)
Accepted flit rate average= 0.0100625
	minimum = 0.006 (at node 13)
	maximum = 0.015 (at node 5)
Injected packet length average = 1
Accepted packet length average = 1
Total in-flight flits = 2 (2 measured)
latency change    = 0.00667464
throughput change = 0.0434783
Class 0:
Packet latency average = 19.2565
	minimum = 7
	maximum = 41
Network latency average = 19.2565
	minimum = 7
	maximum = 41
Slowest packet = 32674
Flit latency average = 19.3676
	minimum = 7
	maximum = 41
Slowest flit = 32674
Fragmentation average = 0
	minimum = 0
	maximum = 0
Injected packet rate average = 0.009775
	minimum = 0.0064 (at node 1)
	maximum = 0.0152 (at node 9)
Accepted packet rate average = 0.009725
	minimum = 0.0064 (at node 4)
	maximum = 0.0152 (at node 6)
Injected flit rate average = 0.009775
	minimum = 0.0064 (at node 1)
	maximum = 0.0152 (at node 9)
Accepted flit rate average= 0.009725
	minimum = 0.0064 (at node 4)
	maximum = 0.0152 (at node 6)
Injected packet length average = 1
Accepted packet length average = 1
Total in-flight flits = 5 (5 measured)
latency change    = 0.0151097
throughput change = 0.0347044
Class 0:
Packet latency average = 19.3319
	minimum = 7
	maximum = 41
Network latency average = 19.3319
	minimum = 7
	maximum = 41
Slowest packet = 32674
Flit latency average = 19.424
	minimum = 7
	maximum = 41
Slowest flit = 32674
Fragmentation average = 0
	minimum = 0
	maximum = 0
Injected packet rate average = 0.00977083
	minimum = 0.00666667 (at node 1)
	maximum = 0.0146667 (at node 9)
Accepted packet rate average = 0.00972917
	minimum = 0.00666667 (at node 4)
	maximum = 0.0146667 (at node 6)
Injected flit rate average = 0.00977083
	minimum = 0.00666667 (at node 1)
	maximum = 0.0146667 (at node 9)
Accepted flit rate average= 0.00972917
	minimum = 0.00666667 (at node 4)
	maximum = 0.0146667 (at node 6)
Injected packet length average = 1
Accepted packet length average = 1
Total in-flight flits = 5 (5 measured)
latency change    = 0.00390132
throughput change = 0.000428266
Draining all recorded packets ...
Draining remaining packets ...
Time taken is 4547 cycles
Class 0:
Packet latency average = 18.1795
	minimum = 7
	maximum = 37
Network latency average = 18.1795
	minimum = 7
	maximum = 37
Slowest packet = 32812
Flit latency average = 18.1795
	minimum = 7
	maximum = 37
Slowest flit = 32812
Fragmentation average = 0
	minimum = 0
	maximum = 0
Injected packet rate average = 0.010375
	minimum = 0.004 (at node 0)
	maximum = 0.016 (at node 1)
Accepted packet rate average = 0.00975
	minimum = 0.002 (at node 3)
	maximum = 0.016 (at node 4)
Injected flit rate average = 0.010375
	minimum = 0.004 (at node 0)
	maximum = 0.016 (at node 1)
Accepted flit rate average= 0.00975
	minimum = 0.002 (at node 3)
	maximum = 0.016 (at node 4)
Injected packet length average = 1
Accepted packet length average = 1
Total in-flight flits = 5 (0 measured)
latency change    = 1
throughput change = 1
Class 0:
Packet latency average = 19.2138
	minimum = 7
	maximum = 37
Network latency average = 19.2138
	minimum = 7
	maximum = 37
Slowest packet = 32812
Flit latency average = 19.2138
	minimum = 7
	maximum = 37
Slowest flit = 32812
Fragmentation average = 0
	minimum = 0
	maximum = 0
Injected packet rate average = 0.0099375
	minimum = 0.006 (at node 6)
	maximum = 0.016 (at node 15)
Accepted packet rate average = 0.0099375
	minimum = 0.006 (at node 2)
	maximum = 0.016 (at node 15)
Injected flit rate average = 0.0099375
	minimum = 0.006 (at node 6)
	maximum = 0.016 (at node 15)
Accepted flit rate average= 0.0099375
	minimum = 0.006 (at node 2)
	maximum = 0.016 (at node 15)
Injected packet length average = 1
Accepted packet length average = 1
Total in-flight flits = 0 (0 measured)
latency change    = 0.0538336
throughput change = 0.0188679
Class 0:
Packet latency average = 19.5075
	minimum = 7
	maximum = 37
Network latency average = 19.5075
	minimum = 7
	maximum = 37
Slowest packet = 32972
Flit latency average = 19.5075
	minimum = 7
	maximum = 37
Slowest flit = 32972
Fragmentation average = 0
	minimum = 0
	maximum = 0
Injected packet rate average = 0.008875
	minimum = 0.004 (at node 0)
	maximum = 0.016 (at node 7)
Accepted packet rate average = 0.008375
	minimum = 0.002 (at node 8)
	maximum = 0.016 (at node 13)
Injected flit rate average = 0.008875
	minimum = 0.004 (at node 0)
	maximum = 0.016 (at node 7)
Accepted flit rate average= 0.008375
	minimum = 0.002 (at node 8)
	maximum = 0.016 (at node 13)
Injected packet length average = 1
Accepted packet length average = 1
Total in-flight flits = 4 (0 measured)
latency change    = 0.015052
throughput change = 0.186567
Warmed up ...Time used is 1500 cycles
Class 0:
Packet latency average = 22.0164
	minimum = 7
	maximum = 40
Network latency average = 22.0164
	minimum = 7
	maximum = 40
Slowest packet = 33062
Flit latency average = 22.1692
	minimum = 7
	maximum = 40
Slowest flit = 33062
Fragmentation average = 0
	minimum = 0
	maximum = 0
Injected packet rate average = 0.00775
	minimum = 0.002 (at node 15)
	maximum = 0.02 (at node 3)
Accepted packet rate average = 0.008125
	minimum = 0.002 (at node 15)
	maximum = 0.02 (at node 12)
Injected flit rate average = 0.00775
	minimum = 0.002 (at node 15)
	maximum = 0.02 (at node 3)
Accepted flit rate average= 0.008125
	minimum = 0.002 (at node 15)
	maximum = 0.02 (at node 12)
Injected packet length average = 1
Accepted packet length average = 1
Total in-flight flits = 1 (1 measured)
latency change    = 0.113957
throughput change = 0.0307692
Class 0:
Packet latency average = 20.9507
	minimum = 7
	maximum = 40
Network latency average = 20.9507
	minimum = 7
	maximum = 40
Slowest packet = 33062
Flit latency average = 21.0479
	minimum = 7
	maximum = 40
Slowest flit = 33062
Fragmentation average = 0
	minimum = 0
	maximum = 0
Injected packet rate average = 0.009125
	minimum = 0.004 (at node 6)
	maximum = 0.015 (at node 3)
Accepted packet rate average = 0.009125
	minimum = 0.004 (at node 9)
	maximum = 0.015 (at node 12)
Injected flit rate average = 0.009125
	minimum = 0.004 (at node 6)
	maximum = 0.015 (at node 3)
Accepted flit rate average= 0.009125
	minimum = 0.004 (at node 9)
	maximum = 0.015 (at node 12)
Injected packet length average = 1
Accepted packet length average = 1
Total in-flight flits = 4 (4 measured)
latency change    = 0.0508665
throughput change = 0.109589
Class 0:
Packet latency average = 20.3575
	minimum = 7
	maximum = 40
Network latency average = 20.3575
	minimum = 7
	maximum = 40
Slowest packet = 33062
Flit latency average = 20.4311
	minimum = 7
	maximum = 40
Slowest flit = 33062
Fragmentation average = 0
	minimum = 0
	maximum = 0
Injected packet rate average = 0.00929167
	minimum = 0.00666667 (at node 0)
	maximum = 0.0126667 (at node 3)
Accepted packet rate average = 0.009375
	minimum = 0.00666667 (at node 0)
	maximum = 0.0126667 (at node 12)
Injected flit rate average = 0.00929167
	minimum = 0.00666667 (at node 0)
	maximum = 0.0126667 (at node 3)
Accepted flit rate average= 0.009375
	minimum = 0.00666667 (at node 0)
	maximum = 0.0126667 (at node 12)
Injected packet length average = 1
Accepted packet length average = 1
Total in-flight flits = 2 (2 measured)
latency change    = 0.0291411
throughput change = 0.0266667
Class 0:
Packet latency average = 20.2345
	minimum = 7
	maximum = 40
Network latency average = 20.2345
	minimum = 7
	maximum = 40
Slowest packet = 33062
Flit latency average = 20.2925
	minimum = 7
	maximum = 40
Slowest flit = 33062
Fragmentation average = 0
	minimum = 0
	maximum = 0
Injected packet rate average = 0.009125
	minimum = 0.006 (at node 0)
	maximum = 0.012 (at node 10)
Accepted packet rate average = 0.0091875
	minimum = 0.006 (at node 0)
	maximum = 0.012 (at node 2)
Injected flit rate average = 0.009125
	minimum = 0.006 (at node 0)
	maximum = 0.012 (at node 10)
Accepted flit rate average= 0.0091875
	minimum = 0.006 (at node 0)
	maximum = 0.012 (at node 2)
Injected packet length average = 1
Accepted packet length average = 1
Total in-flight flits = 2 (2 measured)
latency change    = 0.00607791
throughput change = 0.0204082
Class 0:
Packet latency average = 20.4694
	minimum = 7
	maximum = 40
Network latency average = 20.4694
	minimum = 7
	maximum = 40
Slowest packet = 33062
Flit latency average = 20.5137
	minimum = 7
	maximum = 40
Slowest flit = 33062
Fragmentation average = 0
	minimum = 0
	maximum = 0
Injected packet rate average = 0.00905
	minimum = 0.0064 (at node 0)
	maximum = 0.0136 (at node 3)
Accepted packet rate average = 0.0091
	minimum = 0.0064 (at node 0)
	maximum = 0.0136 (at node 12)
Injected flit rate average = 0.00905
	minimum = 0.0064 (at node 0)
	maximum = 0.0136 (at node 3)
Accepted flit rate average= 0.0091
	minimum = 0.0064 (at node 0)
	maximum = 0.0136 (at node 12)
Injected packet length average = 1
Accepted packet length average = 1
Total in-flight flits = 2 (2 measured)
latency change    = 0.0114787
throughput change = 0.00961538
Draining all recorded packets ...
Draining remaining packets ...
Time taken is 4032 cycles
====== Overall Traffic Statistics ======
====== Traffic class 0 ======
Packet latency average = 19.5184 (50 samples)
	minimum = 7 (50 samples)
	maximum = 42.08 (50 samples)
Network latency average = 19.5184 (50 samples)
	minimum = 7 (50 samples)
	maximum = 42.08 (50 samples)
Flit latency average = 19.559 (50 samples)
	minimum = 7 (50 samples)
	maximum = 42.1 (50 samples)
Fragmentation average = 0 (50 samples)
	minimum = 0 (50 samples)
	maximum = 0 (50 samples)
Injected packet rate average = 0.0100352 (50 samples)
	minimum = 0.00697743 (50 samples)
	maximum = 0.0136945 (50 samples)
Accepted packet rate average = 0.0100371 (50 samples)
	minimum = 0.00697829 (50 samples)
	maximum = 0.0136868 (50 samples)
Injected flit rate average = 0.0100352 (50 samples)
	minimum = 0.00697743 (50 samples)
	maximum = 0.0136945 (50 samples)
Accepted flit rate average = 0.0100371 (50 samples)
	minimum = 0.00697829 (50 samples)
	maximum = 0.0136868 (50 samples)
Injected packet size average = 1 (50 samples)
Accepted packet size average = 1 (50 samples)
Hops average = 3.49049 (50 samples)
Total run time 1.3268
