BEGIN Configuration File: /tmp/tmph3l1ytdh.cfg
topology = mesh;
k = 4;
n = 2;
routing_function = gnn_port_score_route_4x4_v4;
num_vcs = 4;
vc_buf_size = 4;
wait_for_tail_credit = 1;
vc_allocator = islip;
sw_allocator = islip;
alloc_iters = 1;
credit_delay = 2;
routing_delay = 1;
vc_alloc_delay = 1;
sw_alloc_delay = 1;
input_speedup = 2;
output_speedup = 1;
internal_speedup = 1.0;
traffic = transpose;
packet_size = 1;
sim_type = latency;
injection_rate = 0.05;
warmup_periods = 3;
sample_period = 500;
sim_count = 50;
seed = 1;
link_failures = 0;
fail_seed = 101;

END Configuration File: /tmp/tmph3l1ytdh.cfg
Class 0:
Packet latency average = 21.016
	minimum = 7
	maximum = 65
Network latency average = 21.016
	minimum = 7
	maximum = 65
Slowest packet = 46
Flit latency average = 21.016
	minimum = 7
	maximum = 65
Slowest flit = 46
Fragmentation average = 0
	minimum = 0
	maximum = 0
Injected packet rate average = 0.049125
	minimum = 0.032 (at node 9)
	maximum = 0.074 (at node 1)
Accepted packet rate average = 0.047
	minimum = 0.032 (at node 6)
	maximum = 0.07 (at node 4)
Injected flit rate average = 0.049125
	minimum = 0.032 (at node 9)
	maximum = 0.074 (at node 1)
Accepted flit rate average= 0.047
	minimum = 0.032 (at node 6)
	maximum = 0.07 (at node 4)
Injected packet length average = 1
Accepted packet length average = 1
Total in-flight flits = 17 (0 measured)
latency change    = 1
throughput change = 1
Class 0:
Packet latency average = 20.6444
	minimum = 7
	maximum = 73
Network latency average = 20.6444
	minimum = 7
	maximum = 73
Slowest packet = 449
Flit latency average = 20.6444
	minimum = 7
	maximum = 73
Slowest flit = 449
Fragmentation average = 0
	minimum = 0
	maximum = 0
Injected packet rate average = 0.0505
	minimum = 0.038 (at node 9)
	maximum = 0.073 (at node 1)
Accepted packet rate average = 0.0495625
	minimum = 0.036 (at node 6)
	maximum = 0.072 (at node 4)
Injected flit rate average = 0.0505
	minimum = 0.038 (at node 9)
	maximum = 0.073 (at node 1)
Accepted flit rate average= 0.0495625
	minimum = 0.036 (at node 6)
	maximum = 0.072 (at node 4)
Injected packet length average = 1
Accepted packet length average = 1
Total in-flight flits = 15 (0 measured)
latency change    = 0.0179985
throughput change = 0.0517024
Class 0:
Packet latency average = 22.0253
	minimum = 7
	maximum = 72
Network latency average = 22.0253
	minimum = 7
	maximum = 72
Slowest packet = 1135
Flit latency average = 22.0253
	minimum = 7
	maximum = 72
Slowest flit = 1135
Fragmentation average = 0
	minimum = 0
	maximum = 0
Injected packet rate average = 0.05
	minimum = 0.03 (at node 10)
	maximum = 0.068 (at node 12)
Accepted packet rate average = 0.049375
	minimum = 0.03 (at node 10)
	maximum = 0.068 (at node 3)
Injected flit rate average = 0.05
	minimum = 0.03 (at node 10)
	maximum = 0.068 (at node 12)
Accepted flit rate average= 0.049375
	minimum = 0.03 (at node 10)
	maximum = 0.068 (at node 3)
Injected packet length average = 1
Accepted packet length average = 1
Total in-flight flits = 20 (0 measured)
latency change    = 0.0626973
throughput change = 0.00379747
Warmed up ...Time used is 1500 cycles
Class 0:
Packet latency average = 22.4387
	minimum = 7
	maximum = 93
Network latency average = 22.3775
	minimum = 7
	maximum = 93
Slowest packet = 1389
Flit latency average = 23.1121
	minimum = 7
	maximum = 93
Slowest flit = 1389
Fragmentation average = 0
	minimum = 0
	maximum = 0
Injected packet rate average = 0.052875
	minimum = 0.034 (at node 11)
	maximum = 0.068 (at node 15)
Accepted packet rate average = 0.0535
	minimum = 0.036 (at node 14)
	maximum = 0.072 (at node 13)
Injected flit rate average = 0.052875
	minimum = 0.034 (at node 11)
	maximum = 0.068 (at node 15)
Accepted flit rate average= 0.0535
	minimum = 0.036 (at node 14)
	maximum = 0.072 (at node 13)
Injected packet length average = 1
Accepted packet length average = 1
Total in-flight flits = 15 (15 measured)
latency change    = 0.0184239
throughput change = 0.0771028
Class 0:
Packet latency average = 22.5137
	minimum = 7
	maximum = 114
Network latency average = 22.4696
	minimum = 7
	maximum = 114
Slowest packet = 1953
Flit latency average = 22.8335
	minimum = 7
	maximum = 114
Slowest flit = 1953
Fragmentation average = 0
	minimum = 0
	maximum = 0
Injected packet rate average = 0.054125
	minimum = 0.04 (at node 11)
	maximum = 0.067 (at node 1)
Accepted packet rate average = 0.0536875
	minimum = 0.041 (at node 14)
	maximum = 0.067 (at node 13)
Injected flit rate average = 0.054125
	minimum = 0.04 (at node 11)
	maximum = 0.067 (at node 1)
Accepted flit rate average= 0.0536875
	minimum = 0.041 (at node 14)
	maximum = 0.067 (at node 13)
Injected packet length average = 1
Accepted packet length average = 1
Total in-flight flits = 27 (27 measured)
latency change    = 0.00333047
throughput change = 0.00349243
Class 0:
Packet latency average = 22.6273
	minimum = 7
	maximum = 138
Network latency average = 22.5523
	minimum = 7
	maximum = 124
Slowest packet = 2006
Flit latency average = 22.7965
	minimum = 7
	maximum = 124
Slowest flit = 2006
Fragmentation average = 0
	minimum = 0
	maximum = 0
Injected packet rate average = 0.0525833
	minimum = 0.0406667 (at node 0)
	maximum = 0.062 (at node 1)
Accepted packet rate average = 0.0530417
	minimum = 0.0406667 (at node 0)
	maximum = 0.062 (at node 13)
Injected flit rate average = 0.0525833
	minimum = 0.0406667 (at node 0)
	maximum = 0.062 (at node 1)
Accepted flit rate average= 0.0530417
	minimum = 0.0406667 (at node 0)
	maximum = 0.062 (at node 13)
Injected packet length average = 1
Accepted packet length average = 1
Total in-flight flits = 9 (9 measured)
latency change    = 0.00501994
throughput change = 0.012176
Class 0:
Packet latency average = 22.2135
	minimum = 7
	maximum = 138
Network latency average = 22.1562
	minimum = 7
	maximum = 124
Slowest packet = 2006
Flit latency average = 22.3484
	minimum = 7
	maximum = 124
Slowest flit = 2006
Fragmentation average = 0
	minimum = 0
	maximum = 0
Injected packet rate average = 0.051625
	minimum = 0.04 (at node 0)
	maximum = 0.063 (at node 1)
Accepted packet rate average = 0.0518438
	minimum = 0.0385 (at node 0)
	maximum = 0.063 (at node 4)
Injected flit rate average = 0.051625
	minimum = 0.04 (at node 0)
	maximum = 0.063 (at node 1)
Accepted flit rate average= 0.0518438
	minimum = 0.0385 (at node 0)
	maximum = 0.063 (at node 4)
Injected packet length average = 1
Accepted packet length average = 1
Total in-flight flits = 13 (13 measured)
latency change    = 0.018626
throughput change = 0.0231063
Draining all recorded packets ...
Draining remaining packets ...
Time taken is 3566 cycles
Class 0:
Packet latency average = 20.7951
	minimum = 7
	maximum = 61
Network latency average = 20.7901
	minimum = 7
	maximum = 61
Slowest packet = 3230
Flit latency average = 20.7901
	minimum = 7
	maximum = 61
Slowest flit = 3230
Fragmentation average = 0
	minimum = 0
	maximum = 0
Injected packet rate average = 0.05325
	minimum = 0.038 (at node 1)
	maximum = 0.074 (at node 5)
Accepted packet rate average = 0.050625
	minimum = 0.034 (at node 4)
	maximum = 0.074 (at node 5)
Injected flit rate average = 0.05325
	minimum = 0.038 (at node 1)
	maximum = 0.074 (at node 5)
Accepted flit rate average= 0.050625
	minimum = 0.034 (at node 4)
	maximum = 0.074 (at node 5)
Injected packet length average = 1
Accepted packet length average = 1
Total in-flight flits = 21 (0 measured)
latency change    = 1
throughput change = 1
Class 0:
Packet latency average = 21.5879
	minimum = 7
	maximum = 72
Network latency average = 21.5855
	minimum = 7
	maximum = 72
Slowest packet = 3271
Flit latency average = 21.5855
	minimum = 7
	maximum = 72
Slowest flit = 3271
Fragmentation average = 0
	minimum = 0
	maximum = 0
Injected packet rate average = 0.052
	minimum = 0.039 (at node 11)
	maximum = 0.069 (at node 12)
Accepted packet rate average = 0.0508125
	minimum = 0.039 (at node 14)
	maximum = 0.066 (at node 3)
Injected flit rate average = 0.052
	minimum = 0.039 (at node 11)
	maximum = 0.069 (at node 12)
Accepted flit rate average= 0.0508125
	minimum = 0.039 (at node 14)
	maximum = 0.066 (at node 3)
Injected packet length average = 1
Accepted packet length average = 1
Total in-flight flits = 19 (0 measured)
latency change    = 0.0367281
throughput change = 0.00369004
Class 0:
Packet latency average = 22.9977
	minimum = 7
	maximum = 89
Network latency average = 22.9977
	minimum = 7
	maximum = 89
Slowest packet = 3765
Flit latency average = 22.9977
	minimum = 7
	maximum = 89
Slowest flit = 3765
Fragmentation average = 0
	minimum = 0
	maximum = 0
Injected packet rate average = 0.056
	minimum = 0.03 (at node 10)
	maximum = 0.076 (at node 1)
Accepted packet rate average = 0.055375
	minimum = 0.028 (at node 10)
	maximum = 0.078 (at node 4)
Injected flit rate average = 0.056
	minimum = 0.03 (at node 10)
	maximum = 0.076 (at node 1)
Accepted flit rate average= 0.055375
	minimum = 0.028 (at node 10)
	maximum = 0.078 (at node 4)
Injected packet length average = 1
Accepted packet length average = 1
Total in-flight flits = 24 (0 measured)
latency change    = 0.0613015
throughput change = 0.0823928
Warmed up ...Time used is 1500 cycles
Class 0:
Packet latency average = 20.1645
	minimum = 7
	maximum = 50
Network latency average = 20.1645
	minimum = 7
	maximum = 50
Slowest packet = 4500
Flit latency average = 21.1302
	minimum = 7
	maximum = 84
Slowest flit = 4099
Fragmentation average = 0
	minimum = 0
	maximum = 0
Injected packet rate average = 0.050625
	minimum = 0.042 (at node 1)
	maximum = 0.062 (at node 2)
Accepted packet rate average = 0.050875
	minimum = 0.04 (at node 4)
	maximum = 0.062 (at node 8)
Injected flit rate average = 0.050625
	minimum = 0.042 (at node 1)
	maximum = 0.062 (at node 2)
Accepted flit rate average= 0.050875
	minimum = 0.04 (at node 4)
	maximum = 0.062 (at node 8)
Injected packet length average = 1
Accepted packet length average = 1
Total in-flight flits = 22 (22 measured)
latency change    = 0.140507
throughput change = 0.0884521
Class 0:
Packet latency average = 20.132
	minimum = 7
	maximum = 51
Network latency average = 20.132
	minimum = 7
	maximum = 51
Slowest packet = 4538
Flit latency average = 20.6261
	minimum = 7
	maximum = 84
Slowest flit = 4099
Fragmentation average = 0
	minimum = 0
	maximum = 0
Injected packet rate average = 0.049875
	minimum = 0.041 (at node 8)
	maximum = 0.061 (at node 5)
Accepted packet rate average = 0.0498125
	minimum = 0.04 (at node 2)
	maximum = 0.061 (at node 5)
Injected flit rate average = 0.049875
	minimum = 0.041 (at node 8)
	maximum = 0.061 (at node 5)
Accepted flit rate average= 0.0498125
	minimum = 0.04 (at node 2)
	maximum = 0.061 (at node 5)
Injected packet length average = 1
Accepted packet length average = 1
Total in-flight flits = 25 (25 measured)
latency change    = 0.00161621
throughput change = 0.02133
Class 0:
Packet latency average = 21.9949
	minimum = 7
	maximum = 110
Network latency average = 21.961
	minimum = 7
	maximum = 110
Slowest packet = 5181
Flit latency average = 22.2517
	minimum = 7
	maximum = 110
Slowest flit = 5181
Fragmentation average = 0
	minimum = 0
	maximum = 0
Injected packet rate average = 0.049625
	minimum = 0.0406667 (at node 15)
	maximum = 0.06 (at node 5)
Accepted packet rate average = 0.0501667
	minimum = 0.0406667 (at node 15)
	maximum = 0.06 (at node 5)
Injected flit rate average = 0.049625
	minimum = 0.0406667 (at node 15)
	maximum = 0.06 (at node 5)
Accepted flit rate average= 0.0501667
	minimum = 0.0406667 (at node 15)
	maximum = 0.06 (at node 5)
Injected packet length average = 1
Accepted packet length average = 1
Total in-flight flits = 11 (11 measured)
latency change    = 0.0846997
throughput change = 0.0070598
Class 0:
Packet latency average = 21.7798
	minimum = 7
	maximum = 110
Network latency average = 21.7544
	minimum = 7
	maximum = 110
Slowest packet = 5181
Flit latency average = 21.9763
	minimum = 7
	maximum = 110
Slowest flit = 5181
Fragmentation average = 0
	minimum = 0
	maximum = 0
Injected packet rate average = 0.049625
	minimum = 0.041 (at node 15)
	maximum = 0.057 (at node 2)
Accepted packet rate average = 0.05
	minimum = 0.041 (at node 15)
	maximum = 0.058 (at node 8)
Injected flit rate average = 0.049625
	minimum = 0.041 (at node 15)
	maximum = 0.057 (at node 2)
Accepted flit rate average= 0.05
	minimum = 0.041 (at node 15)
	maximum = 0.058 (at node 8)
Injected packet length average = 1
Accepted packet length average = 1
Total in-flight flits = 12 (12 measured)
latency change    = 0.00987579
throughput change = 0.00333333
Class 0:
Packet latency average = 21.6398
	minimum = 7
	maximum = 110
Network latency average = 21.6195
	minimum = 7
	maximum = 110
Slowest packet = 5181
Flit latency average = 21.7997
	minimum = 7
	maximum = 110
Slowest flit = 5181
Fragmentation average = 0
	minimum = 0
	maximum = 0
Injected packet rate average = 0.0495
	minimum = 0.042 (at node 15)
	maximum = 0.0564 (at node 2)
Accepted packet rate average = 0.049675
	minimum = 0.0416 (at node 15)
	maximum = 0.0576 (at node 8)
Injected flit rate average = 0.0495
	minimum = 0.042 (at node 15)
	maximum = 0.0564 (at node 2)
Accepted flit rate average= 0.049675
	minimum = 0.0416 (at node 15)
	maximum = 0.0576 (at node 8)
Injected packet length average = 1
Accepted packet length average = 1
Total in-flight flits = 17 (17 measured)
latency change    = 0.00646887
throughput change = 0.00654253
Class 0:
Packet latency average = 21.4634
	minimum = 7
	maximum = 110
Network latency average = 21.4464
	minimum = 7
	maximum = 110
Slowest packet = 5181
Flit latency average = 21.5983
	minimum = 7
	maximum = 110
Slowest flit = 5181
Fragmentation average = 0
	minimum = 0
	maximum = 0
Injected packet rate average = 0.0495
	minimum = 0.0413333 (at node 15)
	maximum = 0.055 (at node 2)
Accepted packet rate average = 0.0496875
	minimum = 0.0413333 (at node 15)
	maximum = 0.0553333 (at node 8)
Injected flit rate average = 0.0495
	minimum = 0.0413333 (at node 15)
	maximum = 0.055 (at node 2)
Accepted flit rate average= 0.0496875
	minimum = 0.0413333 (at node 15)
	maximum = 0.0553333 (at node 8)
Injected packet length average = 1
Accepted packet length average = 1
Total in-flight flits = 15 (15 measured)
latency change    = 0.0082221
throughput change = 0.000251572
Draining all recorded packets ...
Draining remaining packets ...
Time taken is 4566 cycles
Class 0:
Packet latency average = 21.2684
	minimum = 7
	maximum = 63
Network latency average = 21.2684
	minimum = 7
	maximum = 63
Slowest packet = 6774
Flit latency average = 21.2684
	minimum = 7
	maximum = 63
Slowest flit = 6774
Fragmentation average = 0
	minimum = 0
	maximum = 0
Injected packet rate average = 0.05
	minimum = 0.034 (at node 4)
	maximum = 0.07 (at node 6)
Accepted packet rate average = 0.0475
	minimum = 0.032 (at node 1)
	maximum = 0.064 (at node 9)
Injected flit rate average = 0.05
	minimum = 0.034 (at node 4)
	maximum = 0.07 (at node 6)
Accepted flit rate average= 0.0475
	minimum = 0.032 (at node 1)
	maximum = 0.064 (at node 9)
Injected packet length average = 1
Accepted packet length average = 1
Total in-flight flits = 20 (0 measured)
latency change    = 1
throughput change = 1
Class 0:
Packet latency average = 21.5326
	minimum = 7
	maximum = 70
Network latency average = 21.5326
	minimum = 7
	maximum = 70
Slowest packet = 7015
Flit latency average = 21.5326
	minimum = 7
	maximum = 70
Slowest flit = 7015
Fragmentation average = 0
	minimum = 0
	maximum = 0
Injected packet rate average = 0.0485625
	minimum = 0.04 (at node 10)
	maximum = 0.056 (at node 12)
Accepted packet rate average = 0.047875
	minimum = 0.04 (at node 10)
	maximum = 0.055 (at node 9)
Injected flit rate average = 0.0485625
	minimum = 0.04 (at node 10)
	maximum = 0.056 (at node 12)
Accepted flit rate average= 0.047875
	minimum = 0.04 (at node 10)
	maximum = 0.055 (at node 9)
Injected packet length average = 1
Accepted packet length average = 1
Total in-flight flits = 11 (0 measured)
latency change    = 0.0122705
throughput change = 0.0078329
Class 0:
Packet latency average = 21.1944
	minimum = 7
	maximum = 68
Network latency average = 21.1944
	minimum = 7
	maximum = 68
Slowest packet = 7533
Flit latency average = 21.1944
	minimum = 7
	maximum = 68
Slowest flit = 7533
Fragmentation average = 0
	minimum = 0
	maximum = 0
Injected packet rate average = 0.0495
	minimum = 0.034 (at node 3)
	maximum = 0.074 (at node 14)
Accepted packet rate average = 0.0495
	minimum = 0.032 (at node 12)
	maximum = 0.072 (at node 11)
Injected flit rate average = 0.0495
	minimum = 0.034 (at node 3)
	maximum = 0.074 (at node 14)
Accepted flit rate average= 0.0495
	minimum = 0.032 (at node 12)
	maximum = 0.072 (at node 11)
Injected packet length average = 1
Accepted packet length average = 1
Total in-flight flits = 11 (0 measured)
latency change    = 0.0159567
throughput change = 0.0328283
Warmed up ...Time used is 1500 cycles
Class 0:
Packet latency average = 20.5445
	minimum = 7
	maximum = 61
Network latency average = 20.5445
	minimum = 7
	maximum = 61
Slowest packet = 8085
Flit latency average = 20.7599
	minimum = 7
	maximum = 61
Slowest flit = 8085
Fragmentation average = 0
	minimum = 0
	maximum = 0
Injected packet rate average = 0.05125
	minimum = 0.032 (at node 3)
	maximum = 0.074 (at node 6)
Accepted packet rate average = 0.0505
	minimum = 0.032 (at node 12)
	maximum = 0.07 (at node 9)
Injected flit rate average = 0.05125
	minimum = 0.032 (at node 3)
	maximum = 0.074 (at node 6)
Accepted flit rate average= 0.0505
	minimum = 0.032 (at node 12)
	maximum = 0.07 (at node 9)
Injected packet length average = 1
Accepted packet length average = 1
Total in-flight flits = 17 (17 measured)
latency change    = 0.0316345
throughput change = 0.019802
Class 0:
Packet latency average = 21.2899
	minimum = 7
	maximum = 68
Network latency average = 21.2668
	minimum = 7
	maximum = 68
Slowest packet = 8095
Flit latency average = 21.3672
	minimum = 7
	maximum = 68
Slowest flit = 8095
Fragmentation average = 0
	minimum = 0
	maximum = 0
Injected packet rate average = 0.05
	minimum = 0.038 (at node 4)
	maximum = 0.063 (at node 6)
Accepted packet rate average = 0.0491875
	minimum = 0.036 (at node 1)
	maximum = 0.062 (at node 9)
Injected flit rate average = 0.05
	minimum = 0.038 (at node 4)
	maximum = 0.063 (at node 6)
Accepted flit rate average= 0.0491875
	minimum = 0.036 (at node 1)
	maximum = 0.062 (at node 9)
Injected packet length average = 1
Accepted packet length average = 1
Total in-flight flits = 24 (24 measured)
latency change    = 0.0350127
throughput change = 0.0266836
Class 0:
Packet latency average = 21.1209
	minimum = 7
	maximum = 68
Network latency average = 21.1054
	minimum = 7
	maximum = 68
Slowest packet = 8095
Flit latency average = 21.1745
	minimum = 7
	maximum = 68
Slowest flit = 8095
Fragmentation average = 0
	minimum = 0
	maximum = 0
Injected packet rate average = 0.0492083
	minimum = 0.0413333 (at node 4)
	maximum = 0.06 (at node 6)
Accepted packet rate average = 0.0487083
	minimum = 0.0406667 (at node 1)
	maximum = 0.0586667 (at node 9)
Injected flit rate average = 0.0492083
	minimum = 0.0413333 (at node 4)
	maximum = 0.06 (at node 6)
Accepted flit rate average= 0.0487083
	minimum = 0.0406667 (at node 1)
	maximum = 0.0586667 (at node 9)
Injected packet length average = 1
Accepted packet length average = 1
Total in-flight flits = 23 (23 measured)
latency change    = 0.00800394
throughput change = 0.00983747
Draining all recorded packets ...
Draining remaining packets ...
Time taken is 3071 cycles
Class 0:
Packet latency average = 21.1936
	minimum = 7
	maximum = 56
Network latency average = 21.1936
	minimum = 7
	maximum = 56
Slowest packet = 9290
Flit latency average = 21.1936
	minimum = 7
	maximum = 56
Slowest flit = 9290
Fragmentation average = 0
	minimum = 0
	maximum = 0
Injected packet rate average = 0.049375
	minimum = 0.036 (at node 10)
	maximum = 0.072 (at node 9)
Accepted packet rate average = 0.047125
	minimum = 0.032 (at node 7)
	maximum = 0.062 (at node 6)
Injected flit rate average = 0.049375
	minimum = 0.036 (at node 10)
	maximum = 0.072 (at node 9)
Accepted flit rate average= 0.047125
	minimum = 0.032 (at node 7)
	maximum = 0.062 (at node 6)
Injected packet length average = 1
Accepted packet length average = 1
Total in-flight flits = 18 (0 measured)
latency change    = 1
throughput change = 1
Class 0:
Packet latency average = 21.6848
	minimum = 7
	maximum = 73
Network latency average = 21.6848
	minimum = 7
	maximum = 73
Slowest packet = 9606
Flit latency average = 21.6848
	minimum = 7
	maximum = 73
Slowest flit = 9606
Fragmentation average = 0
	minimum = 0
	maximum = 0
Injected packet rate average = 0.0485625
	minimum = 0.039 (at node 11)
	maximum = 0.068 (at node 4)
Accepted packet rate average = 0.0471875
	minimum = 0.038 (at node 11)
	maximum = 0.066 (at node 1)
Injected flit rate average = 0.0485625
	minimum = 0.039 (at node 11)
	maximum = 0.068 (at node 4)
Accepted flit rate average= 0.0471875
	minimum = 0.038 (at node 11)
	maximum = 0.066 (at node 1)
Injected packet length average = 1
Accepted packet length average = 1
Total in-flight flits = 22 (0 measured)
latency change    = 0.0226488
throughput change = 0.0013245
Class 0:
Packet latency average = 20.5238
	minimum = 7
	maximum = 49
Network latency average = 20.5238
	minimum = 7
	maximum = 49
Slowest packet = 9881
Flit latency average = 20.5238
	minimum = 7
	maximum = 49
Slowest flit = 9881
Fragmentation average = 0
	minimum = 0
	maximum = 0
Injected packet rate average = 0.0455
	minimum = 0.028 (at node 7)
	maximum = 0.062 (at node 4)
Accepted packet rate average = 0.04725
	minimum = 0.036 (at node 12)
	maximum = 0.066 (at node 1)
Injected flit rate average = 0.0455
	minimum = 0.028 (at node 7)
	maximum = 0.062 (at node 4)
Accepted flit rate average= 0.04725
	minimum = 0.036 (at node 12)
	maximum = 0.066 (at node 1)
Injected packet length average = 1
Accepted packet length average = 1
Total in-flight flits = 8 (0 measured)
latency change    = 0.0565664
throughput change = 0.00132275
Warmed up ...Time used is 1500 cycles
Class 0:
Packet latency average = 21.2185
	minimum = 7
	maximum = 57
Network latency average = 21.2185
	minimum = 7
	maximum = 57
Slowest packet = 10228
Flit latency average = 21.3275
	minimum = 7
	maximum = 57
Slowest flit = 10228
Fragmentation average = 0
	minimum = 0
	maximum = 0
Injected packet rate average = 0.05025
	minimum = 0.038 (at node 14)
	maximum = 0.068 (at node 15)
Accepted packet rate average = 0.049625
	minimum = 0.038 (at node 11)
	maximum = 0.068 (at node 15)
Injected flit rate average = 0.05025
	minimum = 0.038 (at node 14)
	maximum = 0.068 (at node 15)
Accepted flit rate average= 0.049625
	minimum = 0.038 (at node 11)
	maximum = 0.068 (at node 15)
Injected packet length average = 1
Accepted packet length average = 1
Total in-flight flits = 13 (13 measured)
latency change    = 0.0327403
throughput change = 0.0478589
Class 0:
Packet latency average = 20.4186
	minimum = 7
	maximum = 57
Network latency average = 20.4186
	minimum = 7
	maximum = 57
Slowest packet = 10228
Flit latency average = 20.4821
	minimum = 7
	maximum = 57
Slowest flit = 10228
Fragmentation average = 0
	minimum = 0
	maximum = 0
Injected packet rate average = 0.0491875
	minimum = 0.042 (at node 8)
	maximum = 0.058 (at node 12)
Accepted packet rate average = 0.048875
	minimum = 0.04 (at node 1)
	maximum = 0.059 (at node 3)
Injected flit rate average = 0.0491875
	minimum = 0.042 (at node 8)
	maximum = 0.058 (at node 12)
Accepted flit rate average= 0.048875
	minimum = 0.04 (at node 1)
	maximum = 0.059 (at node 3)
Injected packet length average = 1
Accepted packet length average = 1
Total in-flight flits = 13 (13 measured)
latency change    = 0.0391753
throughput change = 0.0153453
Class 0:
Packet latency average = 20.5109
	minimum = 7
	maximum = 57
Network latency average = 20.5109
	minimum = 7
	maximum = 57
Slowest packet = 10228
Flit latency average = 20.5532
	minimum = 7
	maximum = 57
Slowest flit = 10228
Fragmentation average = 0
	minimum = 0
	maximum = 0
Injected packet rate average = 0.048375
	minimum = 0.0433333 (at node 4)
	maximum = 0.056 (at node 12)
Accepted packet rate average = 0.048125
	minimum = 0.042 (at node 14)
	maximum = 0.0546667 (at node 3)
Injected flit rate average = 0.048375
	minimum = 0.0433333 (at node 4)
	maximum = 0.056 (at node 12)
Accepted flit rate average= 0.048125
	minimum = 0.042 (at node 14)
	maximum = 0.0546667 (at node 3)
Injected packet length average = 1
Accepted packet length average = 1
Total in-flight flits = 14 (14 measured)
latency change    = 0.00449972
throughput change = 0.0155844
Draining all recorded packets ...
Draining remaining packets ...
Time taken is 3062 cycles
Class 0:
Packet latency average = 21.1995
	minimum = 7
	maximum = 72
Network latency average = 21.1995
	minimum = 7
	maximum = 72
Slowest packet = 11505
Flit latency average = 21.1995
	minimum = 7
	maximum = 72
Slowest flit = 11505
Fragmentation average = 0
	minimum = 0
	maximum = 0
Injected packet rate average = 0.048375
	minimum = 0.038 (at node 1)
	maximum = 0.072 (at node 2)
Accepted packet rate average = 0.047
	minimum = 0.036 (at node 4)
	maximum = 0.072 (at node 8)
Injected flit rate average = 0.048375
	minimum = 0.038 (at node 1)
	maximum = 0.072 (at node 2)
Accepted flit rate average= 0.047
	minimum = 0.036 (at node 4)
	maximum = 0.072 (at node 8)
Injected packet length average = 1
Accepted packet length average = 1
Total in-flight flits = 11 (0 measured)
latency change    = 1
throughput change = 1
Class 0:
Packet latency average = 21.7437
	minimum = 7
	maximum = 76
Network latency average = 21.7437
	minimum = 7
	maximum = 76
Slowest packet = 11737
Flit latency average = 21.7437
	minimum = 7
	maximum = 76
Slowest flit = 11737
Fragmentation average = 0
	minimum = 0
	maximum = 0
Injected packet rate average = 0.051375
	minimum = 0.036 (at node 15)
	maximum = 0.064 (at node 4)
Accepted packet rate average = 0.05
	minimum = 0.036 (at node 15)
	maximum = 0.063 (at node 1)
Injected flit rate average = 0.051375
	minimum = 0.036 (at node 15)
	maximum = 0.064 (at node 4)
Accepted flit rate average= 0.05
	minimum = 0.036 (at node 15)
	maximum = 0.063 (at node 1)
Injected packet length average = 1
Accepted packet length average = 1
Total in-flight flits = 22 (0 measured)
latency change    = 0.0250316
throughput change = 0.06
Class 0:
Packet latency average = 20.9582
	minimum = 7
	maximum = 61
Network latency average = 20.9582
	minimum = 7
	maximum = 61
Slowest packet = 12316
Flit latency average = 20.9582
	minimum = 7
	maximum = 61
Slowest flit = 12316
Fragmentation average = 0
	minimum = 0
	maximum = 0
Injected packet rate average = 0.04975
	minimum = 0.034 (at node 9)
	maximum = 0.066 (at node 7)
Accepted packet rate average = 0.050875
	minimum = 0.036 (at node 6)
	maximum = 0.068 (at node 8)
Injected flit rate average = 0.04975
	minimum = 0.034 (at node 9)
	maximum = 0.066 (at node 7)
Accepted flit rate average= 0.050875
	minimum = 0.036 (at node 6)
	maximum = 0.068 (at node 8)
Injected packet length average = 1
Accepted packet length average = 1
Total in-flight flits = 13 (0 measured)
latency change    = 0.0374802
throughput change = 0.017199
Warmed up ...Time used is 1500 cycles
Class 0:
Packet latency average = 20.2188
	minimum = 7
	maximum = 51
Network latency average = 20.2188
	minimum = 7
	maximum = 51
Slowest packet = 12565
Flit latency average = 20.3571
	minimum = 7
	maximum = 51
Slowest flit = 12565
Fragmentation average = 0
	minimum = 0
	maximum = 0
Injected packet rate average = 0.051375
	minimum = 0.038 (at node 12)
	maximum = 0.072 (at node 2)
Accepted packet rate average = 0.05075
	minimum = 0.04 (at node 3)
	maximum = 0.072 (at node 8)
Injected flit rate average = 0.051375
	minimum = 0.038 (at node 12)
	maximum = 0.072 (at node 2)
Accepted flit rate average= 0.05075
	minimum = 0.04 (at node 3)
	maximum = 0.072 (at node 8)
Injected packet length average = 1
Accepted packet length average = 1
Total in-flight flits = 18 (18 measured)
latency change    = 0.0365699
throughput change = 0.00246305
Class 0:
Packet latency average = 20.4494
	minimum = 7
	maximum = 62
Network latency average = 20.4494
	minimum = 7
	maximum = 62
Slowest packet = 12926
Flit latency average = 20.5172
	minimum = 7
	maximum = 62
Slowest flit = 12926
Fragmentation average = 0
	minimum = 0
	maximum = 0
Injected packet rate average = 0.048875
	minimum = 0.041 (at node 0)
	maximum = 0.064 (at node 15)
Accepted packet rate average = 0.0489375
	minimum = 0.041 (at node 0)
	maximum = 0.064 (at node 15)
Injected flit rate average = 0.048875
	minimum = 0.041 (at node 0)
	maximum = 0.064 (at node 15)
Accepted flit rate average= 0.0489375
	minimum = 0.041 (at node 0)
	maximum = 0.064 (at node 15)
Injected packet length average = 1
Accepted packet length average = 1
Total in-flight flits = 12 (12 measured)
latency change    = 0.0112728
throughput change = 0.037037
Class 0:
Packet latency average = 20.8775
	minimum = 7
	maximum = 118
Network latency average = 20.8715
	minimum = 7
	maximum = 118
Slowest packet = 13562
Flit latency average = 20.9119
	minimum = 7
	maximum = 118
Slowest flit = 13562
Fragmentation average = 0
	minimum = 0
	maximum = 0
Injected packet rate average = 0.0493333
	minimum = 0.0433333 (at node 8)
	maximum = 0.062 (at node 15)
Accepted packet rate average = 0.0491667
	minimum = 0.042 (at node 2)
	maximum = 0.0613333 (at node 15)
Injected flit rate average = 0.0493333
	minimum = 0.0433333 (at node 8)
	maximum = 0.062 (at node 15)
Accepted flit rate average= 0.0491667
	minimum = 0.042 (at node 2)
	maximum = 0.0613333 (at node 15)
Injected packet length average = 1
Accepted packet length average = 1
Total in-flight flits = 17 (17 measured)
latency change    = 0.020506
throughput change = 0.00466102
Draining all recorded packets ...
Draining remaining packets ...
Time taken is 3077 cycles
Class 0:
Packet latency average = 18.9751
	minimum = 7
	maximum = 54
Network latency average = 18.9751
	minimum = 7
	maximum = 54
Slowest packet = 13800
Flit latency average = 18.9751
	minimum = 7
	maximum = 54
Slowest flit = 13800
Fragmentation average = 0
	minimum = 0
	maximum = 0
Injected packet rate average = 0.047375
	minimum = 0.03 (at node 8)
	maximum = 0.064 (at node 0)
Accepted packet rate average = 0.04525
	minimum = 0.028 (at node 2)
	maximum = 0.064 (at node 0)
Injected flit rate average = 0.047375
	minimum = 0.03 (at node 8)
	maximum = 0.064 (at node 0)
Accepted flit rate average= 0.04525
	minimum = 0.028 (at node 2)
	maximum = 0.064 (at node 0)
Injected packet length average = 1
Accepted packet length average = 1
Total in-flight flits = 17 (0 measured)
latency change    = 1
throughput change = 1
Class 0:
Packet latency average = 20.7215
	minimum = 7
	maximum = 73
Network latency average = 20.7215
	minimum = 7
	maximum = 73
Slowest packet = 14348
Flit latency average = 20.7215
	minimum = 7
	maximum = 73
Slowest flit = 14348
Fragmentation average = 0
	minimum = 0
	maximum = 0
Injected packet rate average = 0.0491875
	minimum = 0.04 (at node 8)
	maximum = 0.059 (at node 14)
Accepted packet rate average = 0.04825
	minimum = 0.039 (at node 2)
	maximum = 0.058 (at node 11)
Injected flit rate average = 0.0491875
	minimum = 0.04 (at node 8)
	maximum = 0.059 (at node 14)
Accepted flit rate average= 0.04825
	minimum = 0.039 (at node 2)
	maximum = 0.058 (at node 11)
Injected packet length average = 1
Accepted packet length average = 1
Total in-flight flits = 15 (0 measured)
latency change    = 0.0842779
throughput change = 0.0621762
Class 0:
Packet latency average = 22.335
	minimum = 7
	maximum = 66
Network latency average = 22.335
	minimum = 7
	maximum = 66
Slowest packet = 14543
Flit latency average = 22.335
	minimum = 7
	maximum = 66
Slowest flit = 14543
Fragmentation average = 0
	minimum = 0
	maximum = 0
Injected packet rate average = 0.05025
	minimum = 0.038 (at node 15)
	maximum = 0.062 (at node 14)
Accepted packet rate average = 0.05075
	minimum = 0.04 (at node 0)
	maximum = 0.062 (at node 11)
Injected flit rate average = 0.05025
	minimum = 0.038 (at node 15)
	maximum = 0.062 (at node 14)
Accepted flit rate average= 0.05075
	minimum = 0.04 (at node 0)
	maximum = 0.062 (at node 11)
Injected packet length average = 1
Accepted packet length average = 1
Total in-flight flits = 11 (0 measured)
latency change    = 0.0722397
throughput change = 0.0492611
Warmed up ...Time used is 1500 cycles
Class 0:
Packet latency average = 20.9673
	minimum = 7
	maximum = 52
Network latency average = 20.9673
	minimum = 7
	maximum = 52
Slowest packet = 14963
Flit latency average = 20.9926
	minimum = 7
	maximum = 52
Slowest flit = 14963
Fragmentation average = 0
	minimum = 0
	maximum = 0
Injected packet rate average = 0.050875
	minimum = 0.034 (at node 8)
	maximum = 0.07 (at node 7)
Accepted packet rate average = 0.051
	minimum = 0.034 (at node 2)
	maximum = 0.07 (at node 13)
Injected flit rate average = 0.050875
	minimum = 0.034 (at node 8)
	maximum = 0.07 (at node 7)
Accepted flit rate average= 0.051
	minimum = 0.034 (at node 2)
	maximum = 0.07 (at node 13)
Injected packet length average = 1
Accepted packet length average = 1
Total in-flight flits = 10 (10 measured)
latency change    = 0.0652313
throughput change = 0.00490196
Class 0:
Packet latency average = 20.5345
	minimum = 7
	maximum = 53
Network latency average = 20.5345
	minimum = 7
	maximum = 53
Slowest packet = 15304
Flit latency average = 20.5536
	minimum = 7
	maximum = 53
Slowest flit = 15304
Fragmentation average = 0
	minimum = 0
	maximum = 0
Injected packet rate average = 0.049875
	minimum = 0.034 (at node 8)
	maximum = 0.071 (at node 7)
Accepted packet rate average = 0.0495625
	minimum = 0.032 (at node 2)
	maximum = 0.067 (at node 13)
Injected flit rate average = 0.049875
	minimum = 0.034 (at node 8)
	maximum = 0.071 (at node 7)
Accepted flit rate average= 0.0495625
	minimum = 0.032 (at node 2)
	maximum = 0.067 (at node 13)
Injected packet length average = 1
Accepted packet length average = 1
Total in-flight flits = 16 (16 measured)
latency change    = 0.0210732
throughput change = 0.0290038
Class 0:
Packet latency average = 20.5832
	minimum = 7
	maximum = 59
Network latency average = 20.5832
	minimum = 7
	maximum = 59
Slowest packet = 15975
Flit latency average = 20.5955
	minimum = 7
	maximum = 59
Slowest flit = 15975
Fragmentation average = 0
	minimum = 0
	maximum = 0
Injected packet rate average = 0.05
	minimum = 0.0353333 (at node 8)
	maximum = 0.064 (at node 7)
Accepted packet rate average = 0.0495417
	minimum = 0.034 (at node 2)
	maximum = 0.0626667 (at node 1)
Injected flit rate average = 0.05
	minimum = 0.0353333 (at node 8)
	maximum = 0.064 (at node 7)
Accepted flit rate average= 0.0495417
	minimum = 0.034 (at node 2)
	maximum = 0.0626667 (at node 1)
Injected packet length average = 1
Accepted packet length average = 1
Total in-flight flits = 22 (22 measured)
latency change    = 0.00236431
throughput change = 0.000420521
Class 0:
Packet latency average = 20.5729
	minimum = 7
	maximum = 59
Network latency average = 20.5729
	minimum = 7
	maximum = 59
Slowest packet = 15975
Flit latency average = 20.582
	minimum = 7
	maximum = 59
Slowest flit = 15975
Fragmentation average = 0
	minimum = 0
	maximum = 0
Injected packet rate average = 0.0505312
	minimum = 0.037 (at node 8)
	maximum = 0.062 (at node 4)
Accepted packet rate average = 0.0503125
	minimum = 0.0365 (at node 2)
	maximum = 0.062 (at node 13)
Injected flit rate average = 0.0505312
	minimum = 0.037 (at node 8)
	maximum = 0.062 (at node 4)
Accepted flit rate average= 0.0503125
	minimum = 0.0365 (at node 2)
	maximum = 0.062 (at node 13)
Injected packet length average = 1
Accepted packet length average = 1
Total in-flight flits = 18 (18 measured)
latency change    = 0.000502303
throughput change = 0.0153209
Draining all recorded packets ...
Draining remaining packets ...
Time taken is 3576 cycles
Class 0:
Packet latency average = 20.0845
	minimum = 7
	maximum = 61
Network latency average = 20.0845
	minimum = 7
	maximum = 61
Slowest packet = 16565
Flit latency average = 20.0845
	minimum = 7
	maximum = 61
Slowest flit = 16565
Fragmentation average = 0
	minimum = 0
	maximum = 0
Injected packet rate average = 0.045875
	minimum = 0.032 (at node 3)
	maximum = 0.062 (at node 2)
Accepted packet rate average = 0.042875
	minimum = 0.028 (at node 12)
	maximum = 0.056 (at node 0)
Injected flit rate average = 0.045875
	minimum = 0.032 (at node 3)
	maximum = 0.062 (at node 2)
Accepted flit rate average= 0.042875
	minimum = 0.028 (at node 12)
	maximum = 0.056 (at node 0)
Injected packet length average = 1
Accepted packet length average = 1
Total in-flight flits = 24 (0 measured)
latency change    = 1
throughput change = 1
Class 0:
Packet latency average = 20.8494
	minimum = 7
	maximum = 70
Network latency average = 20.8494
	minimum = 7
	maximum = 70
Slowest packet = 17112
Flit latency average = 20.8494
	minimum = 7
	maximum = 70
Slowest flit = 17112
Fragmentation average = 0
	minimum = 0
	maximum = 0
Injected packet rate average = 0.0490625
	minimum = 0.027 (at node 6)
	maximum = 0.06 (at node 5)
Accepted packet rate average = 0.0485625
	minimum = 0.027 (at node 9)
	maximum = 0.06 (at node 5)
Injected flit rate average = 0.0490625
	minimum = 0.027 (at node 6)
	maximum = 0.06 (at node 5)
Accepted flit rate average= 0.0485625
	minimum = 0.027 (at node 9)
	maximum = 0.06 (at node 5)
Injected packet length average = 1
Accepted packet length average = 1
Total in-flight flits = 8 (0 measured)
latency change    = 0.0366856
throughput change = 0.117117
Class 0:
Packet latency average = 23.3358
	minimum = 7
	maximum = 78
Network latency average = 23.3358
	minimum = 7
	maximum = 78
Slowest packet = 17494
Flit latency average = 23.3358
	minimum = 7
	maximum = 78
Slowest flit = 17494
Fragmentation average = 0
	minimum = 0
	maximum = 0
Injected packet rate average = 0.05175
	minimum = 0.028 (at node 5)
	maximum = 0.064 (at node 1)
Accepted packet rate average = 0.050625
	minimum = 0.028 (at node 5)
	maximum = 0.062 (at node 4)
Injected flit rate average = 0.05175
	minimum = 0.028 (at node 5)
	maximum = 0.064 (at node 1)
Accepted flit rate average= 0.050625
	minimum = 0.028 (at node 5)
	maximum = 0.062 (at node 4)
Injected packet length average = 1
Accepted packet length average = 1
Total in-flight flits = 17 (0 measured)
latency change    = 0.106548
throughput change = 0.0407407
Warmed up ...Time used is 1500 cycles
Class 0:
Packet latency average = 21.4948
	minimum = 7
	maximum = 56
Network latency average = 21.4948
	minimum = 7
	maximum = 56
Slowest packet = 18008
Flit latency average = 21.7146
	minimum = 7
	maximum = 56
Slowest flit = 18008
Fragmentation average = 0
	minimum = 0
	maximum = 0
Injected packet rate average = 0.05125
	minimum = 0.038 (at node 11)
	maximum = 0.068 (at node 2)
Accepted packet rate average = 0.050375
	minimum = 0.038 (at node 14)
	maximum = 0.068 (at node 8)
Injected flit rate average = 0.05125
	minimum = 0.038 (at node 11)
	maximum = 0.068 (at node 2)
Accepted flit rate average= 0.050375
	minimum = 0.038 (at node 14)
	maximum = 0.068 (at node 8)
Injected packet length average = 1
Accepted packet length average = 1
Total in-flight flits = 24 (24 measured)
latency change    = 0.0856478
throughput change = 0.00496278
Class 0:
Packet latency average = 22.6511
	minimum = 7
	maximum = 88
Network latency average = 22.6511
	minimum = 7
	maximum = 88
Slowest packet = 18167
Flit latency average = 22.7386
	minimum = 7
	maximum = 88
Slowest flit = 18167
Fragmentation average = 0
	minimum = 0
	maximum = 0
Injected packet rate average = 0.0489375
	minimum = 0.039 (at node 11)
	maximum = 0.059 (at node 2)
Accepted packet rate average = 0.04925
	minimum = 0.039 (at node 14)
	maximum = 0.059 (at node 6)
Injected flit rate average = 0.0489375
	minimum = 0.039 (at node 11)
	maximum = 0.059 (at node 2)
Accepted flit rate average= 0.04925
	minimum = 0.039 (at node 14)
	maximum = 0.059 (at node 6)
Injected packet length average = 1
Accepted packet length average = 1
Total in-flight flits = 12 (12 measured)
latency change    = 0.0510476
throughput change = 0.0228426
Class 0:
Packet latency average = 22.2579
	minimum = 7
	maximum = 88
Network latency average = 22.2579
	minimum = 7
	maximum = 88
Slowest packet = 18167
Flit latency average = 22.3213
	minimum = 7
	maximum = 88
Slowest flit = 18167
Fragmentation average = 0
	minimum = 0
	maximum = 0
Injected packet rate average = 0.0500417
	minimum = 0.0413333 (at node 1)
	maximum = 0.0593333 (at node 2)
Accepted packet rate average = 0.0496667
	minimum = 0.0413333 (at node 4)
	maximum = 0.0593333 (at node 8)
Injected flit rate average = 0.0500417
	minimum = 0.0413333 (at node 1)
	maximum = 0.0593333 (at node 2)
Accepted flit rate average= 0.0496667
	minimum = 0.0413333 (at node 4)
	maximum = 0.0593333 (at node 8)
Injected packet length average = 1
Accepted packet length average = 1
Total in-flight flits = 26 (26 measured)
latency change    = 0.017667
throughput change = 0.00838926
Class 0:
Packet latency average = 23.0349
	minimum = 7
	maximum = 185
Network latency average = 23.0331
	minimum = 7
	maximum = 185
Slowest packet = 18897
Flit latency average = 23.0716
	minimum = 7
	maximum = 185
Slowest flit = 18897
Fragmentation average = 0
	minimum = 0
	maximum = 0
Injected packet rate average = 0.050625
	minimum = 0.042 (at node 0)
	maximum = 0.059 (at node 2)
Accepted packet rate average = 0.050625
	minimum = 0.042 (at node 0)
	maximum = 0.0595 (at node 8)
Injected flit rate average = 0.050625
	minimum = 0.042 (at node 0)
	maximum = 0.059 (at node 2)
Accepted flit rate average= 0.050625
	minimum = 0.042 (at node 0)
	maximum = 0.0595 (at node 8)
Injected packet length average = 1
Accepted packet length average = 1
Total in-flight flits = 17 (17 measured)
latency change    = 0.0337341
throughput change = 0.01893
Class 0:
Packet latency average = 22.2661
	minimum = 7
	maximum = 185
Network latency average = 22.2646
	minimum = 7
	maximum = 185
Slowest packet = 18897
Flit latency average = 22.3014
	minimum = 7
	maximum = 185
Slowest flit = 18897
Fragmentation average = 0
	minimum = 0
	maximum = 0
Injected packet rate average = 0.05135
	minimum = 0.0444 (at node 0)
	maximum = 0.0596 (at node 5)
Accepted packet rate average = 0.05135
	minimum = 0.0432 (at node 0)
	maximum = 0.0596 (at node 5)
Injected flit rate average = 0.05135
	minimum = 0.0444 (at node 0)
	maximum = 0.0596 (at node 5)
Accepted flit rate average= 0.05135
	minimum = 0.0432 (at node 0)
	maximum = 0.0596 (at node 5)
Injected packet length average = 1
Accepted packet length average = 1
Total in-flight flits = 17 (17 measured)
latency change    = 0.0345304
throughput change = 0.0141188
Draining all recorded packets ...
Draining remaining packets ...
Time taken is 4071 cycles
Class 0:
Packet latency average = 21.6548
	minimum = 7
	maximum = 81
Network latency average = 21.6548
	minimum = 7
	maximum = 81
Slowest packet = 20024
Flit latency average = 21.6548
	minimum = 7
	maximum = 81
Slowest flit = 20024
Fragmentation average = 0
	minimum = 0
	maximum = 0
Injected packet rate average = 0.047125
	minimum = 0.024 (at node 6)
	maximum = 0.062 (at node 11)
Accepted packet rate average = 0.045625
	minimum = 0.022 (at node 9)
	maximum = 0.062 (at node 14)
Injected flit rate average = 0.047125
	minimum = 0.024 (at node 6)
	maximum = 0.062 (at node 11)
Accepted flit rate average= 0.045625
	minimum = 0.022 (at node 9)
	maximum = 0.062 (at node 14)
Injected packet length average = 1
Accepted packet length average = 1
Total in-flight flits = 12 (0 measured)
latency change    = 1
throughput change = 1
Class 0:
Packet latency average = 20.814
	minimum = 7
	maximum = 81
Network latency average = 20.814
	minimum = 7
	maximum = 81
Slowest packet = 20024
Flit latency average = 20.814
	minimum = 7
	maximum = 81
Slowest flit = 20024
Fragmentation average = 0
	minimum = 0
	maximum = 0
Injected packet rate average = 0.047625
	minimum = 0.028 (at node 2)
	maximum = 0.073 (at node 10)
Accepted packet rate average = 0.046375
	minimum = 0.026 (at node 8)
	maximum = 0.073 (at node 10)
Injected flit rate average = 0.047625
	minimum = 0.028 (at node 2)
	maximum = 0.073 (at node 10)
Accepted flit rate average= 0.046375
	minimum = 0.026 (at node 8)
	maximum = 0.073 (at node 10)
Injected packet length average = 1
Accepted packet length average = 1
Total in-flight flits = 20 (0 measured)
latency change    = 0.0403948
throughput change = 0.0161725
Class 0:
Packet latency average = 22.5917
	minimum = 7
	maximum = 84
Network latency average = 22.5917
	minimum = 7
	maximum = 84
Slowest packet = 20824
Flit latency average = 22.5917
	minimum = 7
	maximum = 84
Slowest flit = 20824
Fragmentation average = 0
	minimum = 0
	maximum = 0
Injected packet rate average = 0.0505
	minimum = 0.03 (at node 9)
	maximum = 0.07 (at node 10)
Accepted packet rate average = 0.051125
	minimum = 0.032 (at node 6)
	maximum = 0.068 (at node 10)
Injected flit rate average = 0.0505
	minimum = 0.03 (at node 9)
	maximum = 0.07 (at node 10)
Accepted flit rate average= 0.051125
	minimum = 0.032 (at node 6)
	maximum = 0.068 (at node 10)
Injected packet length average = 1
Accepted packet length average = 1
Total in-flight flits = 15 (0 measured)
latency change    = 0.0786869
throughput change = 0.0929095
Warmed up ...Time used is 1500 cycles
Class 0:
Packet latency average = 22.9556
	minimum = 7
	maximum = 68
Network latency average = 22.9556
	minimum = 7
	maximum = 68
Slowest packet = 21262
Flit latency average = 23.0677
	minimum = 7
	maximum = 68
Slowest flit = 21262
Fragmentation average = 0
	minimum = 0
	maximum = 0
Injected packet rate average = 0.055625
	minimum = 0.036 (at node 15)
	maximum = 0.074 (at node 6)
Accepted packet rate average = 0.055375
	minimum = 0.036 (at node 15)
	maximum = 0.07 (at node 4)
Injected flit rate average = 0.055625
	minimum = 0.036 (at node 15)
	maximum = 0.074 (at node 6)
Accepted flit rate average= 0.055375
	minimum = 0.036 (at node 15)
	maximum = 0.07 (at node 4)
Injected packet length average = 1
Accepted packet length average = 1
Total in-flight flits = 17 (17 measured)
latency change    = 0.0158532
throughput change = 0.0767494
Class 0:
Packet latency average = 22.3817
	minimum = 7
	maximum = 68
Network latency average = 22.3817
	minimum = 7
	maximum = 68
Slowest packet = 21262
Flit latency average = 22.4515
	minimum = 7
	maximum = 68
Slowest flit = 21262
Fragmentation average = 0
	minimum = 0
	maximum = 0
Injected packet rate average = 0.052375
	minimum = 0.039 (at node 10)
	maximum = 0.065 (at node 7)
Accepted packet rate average = 0.0521875
	minimum = 0.04 (at node 10)
	maximum = 0.066 (at node 13)
Injected flit rate average = 0.052375
	minimum = 0.039 (at node 10)
	maximum = 0.065 (at node 7)
Accepted flit rate average= 0.0521875
	minimum = 0.04 (at node 10)
	maximum = 0.066 (at node 13)
Injected packet length average = 1
Accepted packet length average = 1
Total in-flight flits = 18 (18 measured)
latency change    = 0.0256415
throughput change = 0.0610778
Class 0:
Packet latency average = 22.2775
	minimum = 7
	maximum = 79
Network latency average = 22.2775
	minimum = 7
	maximum = 79
Slowest packet = 21918
Flit latency average = 22.3256
	minimum = 7
	maximum = 79
Slowest flit = 21918
Fragmentation average = 0
	minimum = 0
	maximum = 0
Injected packet rate average = 0.05225
	minimum = 0.0433333 (at node 15)
	maximum = 0.066 (at node 7)
Accepted packet rate average = 0.0518333
	minimum = 0.0426667 (at node 15)
	maximum = 0.0646667 (at node 13)
Injected flit rate average = 0.05225
	minimum = 0.0433333 (at node 15)
	maximum = 0.066 (at node 7)
Accepted flit rate average= 0.0518333
	minimum = 0.0426667 (at node 15)
	maximum = 0.0646667 (at node 13)
Injected packet length average = 1
Accepted packet length average = 1
Total in-flight flits = 25 (25 measured)
latency change    = 0.00467944
throughput change = 0.0068328
Class 0:
Packet latency average = 21.8636
	minimum = 7
	maximum = 79
Network latency average = 21.8636
	minimum = 7
	maximum = 79
Slowest packet = 21918
Flit latency average = 21.9038
	minimum = 7
	maximum = 79
Slowest flit = 21918
Fragmentation average = 0
	minimum = 0
	maximum = 0
Injected packet rate average = 0.0515938
	minimum = 0.0435 (at node 12)
	maximum = 0.064 (at node 11)
Accepted packet rate average = 0.0513438
	minimum = 0.044 (at node 3)
	maximum = 0.0625 (at node 14)
Injected flit rate average = 0.0515938
	minimum = 0.0435 (at node 12)
	maximum = 0.064 (at node 11)
Accepted flit rate average= 0.0513438
	minimum = 0.044 (at node 3)
	maximum = 0.0625 (at node 14)
Injected packet length average = 1
Accepted packet length average = 1
Total in-flight flits = 23 (23 measured)
latency change    = 0.0189275
throughput change = 0.0095354
Class 0:
Packet latency average = 21.9067
	minimum = 7
	maximum = 80
Network latency average = 21.9067
	minimum = 7
	maximum = 80
Slowest packet = 22887
Flit latency average = 21.9387
	minimum = 7
	maximum = 80
Slowest flit = 22887
Fragmentation average = 0
	minimum = 0
	maximum = 0
Injected packet rate average = 0.05105
	minimum = 0.0448 (at node 5)
	maximum = 0.0608 (at node 11)
Accepted packet rate average = 0.051
	minimum = 0.0448 (at node 5)
	maximum = 0.0604 (at node 14)
Injected flit rate average = 0.05105
	minimum = 0.0448 (at node 5)
	maximum = 0.0608 (at node 11)
Accepted flit rate average= 0.051
	minimum = 0.0448 (at node 5)
	maximum = 0.0604 (at node 14)
Injected packet length average = 1
Accepted packet length average = 1
Total in-flight flits = 17 (17 measured)
latency change    = 0.00196426
throughput change = 0.0067402
Draining all recorded packets ...
Draining remaining packets ...
Time taken is 4066 cycles
Class 0:
Packet latency average = 21.3219
	minimum = 7
	maximum = 55
Network latency average = 21.3219
	minimum = 7
	maximum = 55
Slowest packet = 23114
Flit latency average = 21.3219
	minimum = 7
	maximum = 55
Slowest flit = 23114
Fragmentation average = 0
	minimum = 0
	maximum = 0
Injected packet rate average = 0.05
	minimum = 0.032 (at node 10)
	maximum = 0.064 (at node 7)
Accepted packet rate average = 0.047375
	minimum = 0.032 (at node 10)
	maximum = 0.06 (at node 0)
Injected flit rate average = 0.05
	minimum = 0.032 (at node 10)
	maximum = 0.064 (at node 7)
Accepted flit rate average= 0.047375
	minimum = 0.032 (at node 10)
	maximum = 0.06 (at node 0)
Injected packet length average = 1
Accepted packet length average = 1
Total in-flight flits = 21 (0 measured)
latency change    = 1
throughput change = 1
Class 0:
Packet latency average = 21.3973
	minimum = 7
	maximum = 67
Network latency average = 21.3973
	minimum = 7
	maximum = 67
Slowest packet = 23603
Flit latency average = 21.3973
	minimum = 7
	maximum = 67
Slowest flit = 23603
Fragmentation average = 0
	minimum = 0
	maximum = 0
Injected packet rate average = 0.0525
	minimum = 0.034 (at node 10)
	maximum = 0.065 (at node 7)
Accepted packet rate average = 0.05175
	minimum = 0.034 (at node 10)
	maximum = 0.063 (at node 13)
Injected flit rate average = 0.0525
	minimum = 0.034 (at node 10)
	maximum = 0.065 (at node 7)
Accepted flit rate average= 0.05175
	minimum = 0.034 (at node 10)
	maximum = 0.063 (at node 13)
Injected packet length average = 1
Accepted packet length average = 1
Total in-flight flits = 12 (0 measured)
latency change    = 0.00352582
throughput change = 0.0845411
Class 0:
Packet latency average = 22.8915
	minimum = 7
	maximum = 77
Network latency average = 22.8915
	minimum = 7
	maximum = 77
Slowest packet = 24091
Flit latency average = 22.8915
	minimum = 7
	maximum = 77
Slowest flit = 24091
Fragmentation average = 0
	minimum = 0
	maximum = 0
Injected packet rate average = 0.0545
	minimum = 0.038 (at node 1)
	maximum = 0.068 (at node 3)
Accepted packet rate average = 0.054125
	minimum = 0.034 (at node 4)
	maximum = 0.066 (at node 2)
Injected flit rate average = 0.0545
	minimum = 0.038 (at node 1)
	maximum = 0.068 (at node 3)
Accepted flit rate average= 0.054125
	minimum = 0.034 (at node 4)
	maximum = 0.066 (at node 2)
Injected packet length average = 1
Accepted packet length average = 1
Total in-flight flits = 15 (0 measured)
latency change    = 0.0652694
throughput change = 0.0438799
Warmed up ...Time used is 1500 cycles
Class 0:
Packet latency average = 21.4753
	minimum = 7
	maximum = 65
Network latency average = 21.4753
	minimum = 7
	maximum = 65
Slowest packet = 24719
Flit latency average = 21.5659
	minimum = 7
	maximum = 65
Slowest flit = 24719
Fragmentation average = 0
	minimum = 0
	maximum = 0
Injected packet rate average = 0.055125
	minimum = 0.04 (at node 12)
	maximum = 0.064 (at node 14)
Accepted packet rate average = 0.055
	minimum = 0.04 (at node 3)
	maximum = 0.066 (at node 12)
Injected flit rate average = 0.055125
	minimum = 0.04 (at node 12)
	maximum = 0.064 (at node 14)
Accepted flit rate average= 0.055
	minimum = 0.04 (at node 3)
	maximum = 0.066 (at node 12)
Injected packet length average = 1
Accepted packet length average = 1
Total in-flight flits = 16 (16 measured)
latency change    = 0.0659437
throughput change = 0.0159091
Class 0:
Packet latency average = 21.4812
	minimum = 7
	maximum = 76
Network latency average = 21.4812
	minimum = 7
	maximum = 76
Slowest packet = 25057
Flit latency average = 21.5286
	minimum = 7
	maximum = 76
Slowest flit = 25057
Fragmentation average = 0
	minimum = 0
	maximum = 0
Injected packet rate average = 0.05275
	minimum = 0.042 (at node 5)
	maximum = 0.062 (at node 14)
Accepted packet rate average = 0.052375
	minimum = 0.043 (at node 5)
	maximum = 0.061 (at node 11)
Injected flit rate average = 0.05275
	minimum = 0.042 (at node 5)
	maximum = 0.062 (at node 14)
Accepted flit rate average= 0.052375
	minimum = 0.043 (at node 5)
	maximum = 0.061 (at node 11)
Injected packet length average = 1
Accepted packet length average = 1
Total in-flight flits = 21 (21 measured)
latency change    = 0.000273372
throughput change = 0.0501193
Class 0:
Packet latency average = 21.5551
	minimum = 7
	maximum = 76
Network latency average = 21.5551
	minimum = 7
	maximum = 76
Slowest packet = 25057
Flit latency average = 21.5865
	minimum = 7
	maximum = 76
Slowest flit = 25057
Fragmentation average = 0
	minimum = 0
	maximum = 0
Injected packet rate average = 0.051125
	minimum = 0.0406667 (at node 5)
	maximum = 0.062 (at node 13)
Accepted packet rate average = 0.0512917
	minimum = 0.0413333 (at node 5)
	maximum = 0.0626667 (at node 7)
Injected flit rate average = 0.051125
	minimum = 0.0406667 (at node 5)
	maximum = 0.062 (at node 13)
Accepted flit rate average= 0.0512917
	minimum = 0.0413333 (at node 5)
	maximum = 0.0626667 (at node 7)
Injected packet length average = 1
Accepted packet length average = 1
Total in-flight flits = 11 (11 measured)
latency change    = 0.00342992
throughput change = 0.021121
Class 0:
Packet latency average = 21.6371
	minimum = 7
	maximum = 76
Network latency average = 21.6371
	minimum = 7
	maximum = 76
Slowest packet = 25057
Flit latency average = 21.66
	minimum = 7
	maximum = 76
Slowest flit = 25057
Fragmentation average = 0
	minimum = 0
	maximum = 0
Injected packet rate average = 0.0511875
	minimum = 0.041 (at node 5)
	maximum = 0.062 (at node 13)
Accepted packet rate average = 0.0511875
	minimum = 0.0415 (at node 5)
	maximum = 0.062 (at node 7)
Injected flit rate average = 0.0511875
	minimum = 0.041 (at node 5)
	maximum = 0.062 (at node 13)
Accepted flit rate average= 0.0511875
	minimum = 0.0415 (at node 5)
	maximum = 0.062 (at node 7)
Injected packet length average = 1
Accepted packet length average = 1
Total in-flight flits = 15 (15 measured)
latency change    = 0.00378947
throughput change = 0.002035
Class 0:
Packet latency average = 21.7941
	minimum = 7
	maximum = 78
Network latency average = 21.7941
	minimum = 7
	maximum = 78
Slowest packet = 26132
Flit latency average = 21.8112
	minimum = 7
	maximum = 78
Slowest flit = 26132
Fragmentation average = 0
	minimum = 0
	maximum = 0
Injected packet rate average = 0.051175
	minimum = 0.0408 (at node 5)
	maximum = 0.0608 (at node 13)
Accepted packet rate average = 0.051125
	minimum = 0.0412 (at node 5)
	maximum = 0.0616 (at node 7)
Injected flit rate average = 0.051175
	minimum = 0.0408 (at node 5)
	maximum = 0.0608 (at node 13)
Accepted flit rate average= 0.051125
	minimum = 0.0412 (at node 5)
	maximum = 0.0616 (at node 7)
Injected packet length average = 1
Accepted packet length average = 1
Total in-flight flits = 17 (17 measured)
latency change    = 0.00720364
throughput change = 0.00122249
Draining all recorded packets ...
Draining remaining packets ...
Time taken is 4108 cycles
Class 0:
Packet latency average = 19.7713
	minimum = 7
	maximum = 59
Network latency average = 19.7713
	minimum = 7
	maximum = 59
Slowest packet = 26663
Flit latency average = 19.7713
	minimum = 7
	maximum = 59
Slowest flit = 26663
Fragmentation average = 0
	minimum = 0
	maximum = 0
Injected packet rate average = 0.0475
	minimum = 0.036 (at node 14)
	maximum = 0.06 (at node 12)
Accepted packet rate average = 0.045375
	minimum = 0.034 (at node 7)
	maximum = 0.058 (at node 10)
Injected flit rate average = 0.0475
	minimum = 0.036 (at node 14)
	maximum = 0.06 (at node 12)
Accepted flit rate average= 0.045375
	minimum = 0.034 (at node 7)
	maximum = 0.058 (at node 10)
Injected packet length average = 1
Accepted packet length average = 1
Total in-flight flits = 17 (0 measured)
latency change    = 1
throughput change = 1
Class 0:
Packet latency average = 21.0746
	minimum = 7
	maximum = 80
Network latency average = 21.0746
	minimum = 7
	maximum = 80
Slowest packet = 27148
Flit latency average = 21.0746
	minimum = 7
	maximum = 80
Slowest flit = 27148
Fragmentation average = 0
	minimum = 0
	maximum = 0
Injected packet rate average = 0.049875
	minimum = 0.041 (at node 13)
	maximum = 0.059 (at node 8)
Accepted packet rate average = 0.048625
	minimum = 0.04 (at node 7)
	maximum = 0.056 (at node 10)
Injected flit rate average = 0.049875
	minimum = 0.041 (at node 13)
	maximum = 0.059 (at node 8)
Accepted flit rate average= 0.048625
	minimum = 0.04 (at node 7)
	maximum = 0.056 (at node 10)
Injected packet length average = 1
Accepted packet length average = 1
Total in-flight flits = 20 (0 measured)
latency change    = 0.0618376
throughput change = 0.066838
Class 0:
Packet latency average = 22.1166
	minimum = 7
	maximum = 95
Network latency average = 22.1166
	minimum = 7
	maximum = 95
Slowest packet = 27172
Flit latency average = 22.1166
	minimum = 7
	maximum = 95
Slowest flit = 27172
Fragmentation average = 0
	minimum = 0
	maximum = 0
Injected packet rate average = 0.05075
	minimum = 0.038 (at node 4)
	maximum = 0.066 (at node 11)
Accepted packet rate average = 0.050375
	minimum = 0.036 (at node 1)
	maximum = 0.068 (at node 14)
Injected flit rate average = 0.05075
	minimum = 0.038 (at node 4)
	maximum = 0.066 (at node 11)
Accepted flit rate average= 0.050375
	minimum = 0.036 (at node 1)
	maximum = 0.068 (at node 14)
Injected packet length average = 1
Accepted packet length average = 1
Total in-flight flits = 23 (0 measured)
latency change    = 0.0471173
throughput change = 0.0347395
Warmed up ...Time used is 1500 cycles
Class 0:
Packet latency average = 23.3535
	minimum = 7
	maximum = 91
Network latency average = 23.3535
	minimum = 7
	maximum = 91
Slowest packet = 27909
Flit latency average = 23.494
	minimum = 7
	maximum = 91
Slowest flit = 27909
Fragmentation average = 0
	minimum = 0
	maximum = 0
Injected packet rate average = 0.052
	minimum = 0.032 (at node 1)
	maximum = 0.084 (at node 11)
Accepted packet rate average = 0.052375
	minimum = 0.034 (at node 4)
	maximum = 0.076 (at node 14)
Injected flit rate average = 0.052
	minimum = 0.032 (at node 1)
	maximum = 0.084 (at node 11)
Accepted flit rate average= 0.052375
	minimum = 0.034 (at node 4)
	maximum = 0.076 (at node 14)
Injected packet length average = 1
Accepted packet length average = 1
Total in-flight flits = 20 (20 measured)
latency change    = 0.0529646
throughput change = 0.0381862
Class 0:
Packet latency average = 23.6342
	minimum = 7
	maximum = 112
Network latency average = 23.6342
	minimum = 7
	maximum = 112
Slowest packet = 27975
Flit latency average = 23.6978
	minimum = 7
	maximum = 112
Slowest flit = 27975
Fragmentation average = 0
	minimum = 0
	maximum = 0
Injected packet rate average = 0.0509375
	minimum = 0.037 (at node 9)
	maximum = 0.072 (at node 11)
Accepted packet rate average = 0.0515
	minimum = 0.038 (at node 6)
	maximum = 0.072 (at node 14)
Injected flit rate average = 0.0509375
	minimum = 0.037 (at node 9)
	maximum = 0.072 (at node 11)
Accepted flit rate average= 0.0515
	minimum = 0.038 (at node 6)
	maximum = 0.072 (at node 14)
Injected packet length average = 1
Accepted packet length average = 1
Total in-flight flits = 14 (14 measured)
latency change    = 0.0118757
throughput change = 0.0169903
Class 0:
Packet latency average = 24.0611
	minimum = 7
	maximum = 112
Network latency average = 24.0527
	minimum = 7
	maximum = 112
Slowest packet = 27975
Flit latency average = 24.0878
	minimum = 7
	maximum = 112
Slowest flit = 27975
Fragmentation average = 0
	minimum = 0
	maximum = 0
Injected packet rate average = 0.0504583
	minimum = 0.04 (at node 15)
	maximum = 0.0646667 (at node 8)
Accepted packet rate average = 0.05075
	minimum = 0.0393333 (at node 15)
	maximum = 0.066 (at node 2)
Injected flit rate average = 0.0504583
	minimum = 0.04 (at node 15)
	maximum = 0.0646667 (at node 8)
Accepted flit rate average= 0.05075
	minimum = 0.0393333 (at node 15)
	maximum = 0.066 (at node 2)
Injected packet length average = 1
Accepted packet length average = 1
Total in-flight flits = 16 (16 measured)
latency change    = 0.0177415
throughput change = 0.0147783
Class 0:
Packet latency average = 23.1862
	minimum = 7
	maximum = 112
Network latency average = 23.1792
	minimum = 7
	maximum = 112
Slowest packet = 27975
Flit latency average = 23.2182
	minimum = 7
	maximum = 112
Slowest flit = 27975
Fragmentation average = 0
	minimum = 0
	maximum = 0
Injected packet rate average = 0.050375
	minimum = 0.043 (at node 1)
	maximum = 0.06 (at node 8)
Accepted packet rate average = 0.0504062
	minimum = 0.043 (at node 4)
	maximum = 0.0605 (at node 2)
Injected flit rate average = 0.050375
	minimum = 0.043 (at node 1)
	maximum = 0.06 (at node 8)
Accepted flit rate average= 0.0504062
	minimum = 0.043 (at node 4)
	maximum = 0.0605 (at node 2)
Injected packet length average = 1
Accepted packet length average = 1
Total in-flight flits = 22 (22 measured)
latency change    = 0.0377348
throughput change = 0.00681959
Draining all recorded packets ...
Draining remaining packets ...
Time taken is 3575 cycles
Class 0:
Packet latency average = 20.6676
	minimum = 7
	maximum = 65
Network latency average = 20.6676
	minimum = 7
	maximum = 65
Slowest packet = 29511
Flit latency average = 20.6676
	minimum = 7
	maximum = 65
Slowest flit = 29511
Fragmentation average = 0
	minimum = 0
	maximum = 0
Injected packet rate average = 0.045625
	minimum = 0.032 (at node 2)
	maximum = 0.066 (at node 9)
Accepted packet rate average = 0.044
	minimum = 0.032 (at node 8)
	maximum = 0.066 (at node 6)
Injected flit rate average = 0.045625
	minimum = 0.032 (at node 2)
	maximum = 0.066 (at node 9)
Accepted flit rate average= 0.044
	minimum = 0.032 (at node 8)
	maximum = 0.066 (at node 6)
Injected packet length average = 1
Accepted packet length average = 1
Total in-flight flits = 13 (0 measured)
latency change    = 1
throughput change = 1
Class 0:
Packet latency average = 21
	minimum = 7
	maximum = 70
Network latency average = 21
	minimum = 7
	maximum = 70
Slowest packet = 29810
Flit latency average = 21
	minimum = 7
	maximum = 70
Slowest flit = 29810
Fragmentation average = 0
	minimum = 0
	maximum = 0
Injected packet rate average = 0.0479375
	minimum = 0.035 (at node 3)
	maximum = 0.061 (at node 10)
Accepted packet rate average = 0.0470625
	minimum = 0.033 (at node 12)
	maximum = 0.06 (at node 10)
Injected flit rate average = 0.0479375
	minimum = 0.035 (at node 3)
	maximum = 0.061 (at node 10)
Accepted flit rate average= 0.0470625
	minimum = 0.033 (at node 12)
	maximum = 0.06 (at node 10)
Injected packet length average = 1
Accepted packet length average = 1
Total in-flight flits = 14 (0 measured)
latency change    = 0.0158279
throughput change = 0.065073
Class 0:
Packet latency average = 21.7678
	minimum = 7
	maximum = 58
Network latency average = 21.7678
	minimum = 7
	maximum = 58
Slowest packet = 30349
Flit latency average = 21.7678
	minimum = 7
	maximum = 58
Slowest flit = 30349
Fragmentation average = 0
	minimum = 0
	maximum = 0
Injected packet rate average = 0.048125
	minimum = 0.03 (at node 10)
	maximum = 0.062 (at node 3)
Accepted packet rate average = 0.047375
	minimum = 0.032 (at node 10)
	maximum = 0.062 (at node 12)
Injected flit rate average = 0.048125
	minimum = 0.03 (at node 10)
	maximum = 0.062 (at node 3)
Accepted flit rate average= 0.047375
	minimum = 0.032 (at node 10)
	maximum = 0.062 (at node 12)
Injected packet length average = 1
Accepted packet length average = 1
Total in-flight flits = 20 (0 measured)
latency change    = 0.0352727
throughput change = 0.00659631
Warmed up ...Time used is 1500 cycles
Class 0:
Packet latency average = 20.0565
	minimum = 7
	maximum = 55
Network latency average = 20.0565
	minimum = 7
	maximum = 55
Slowest packet = 30569
Flit latency average = 20.4778
	minimum = 7
	maximum = 65
Slowest flit = 30408
Fragmentation average = 0
	minimum = 0
	maximum = 0
Injected packet rate average = 0.052375
	minimum = 0.04 (at node 13)
	maximum = 0.068 (at node 11)
Accepted packet rate average = 0.053375
	minimum = 0.042 (at node 6)
	maximum = 0.068 (at node 0)
Injected flit rate average = 0.052375
	minimum = 0.04 (at node 13)
	maximum = 0.068 (at node 11)
Accepted flit rate average= 0.053375
	minimum = 0.042 (at node 6)
	maximum = 0.068 (at node 0)
Injected packet length average = 1
Accepted packet length average = 1
Total in-flight flits = 12 (12 measured)
latency change    = 0.0853239
throughput change = 0.112412
Class 0:
Packet latency average = 20.1088
	minimum = 7
	maximum = 55
Network latency average = 20.1088
	minimum = 7
	maximum = 55
Slowest packet = 30569
Flit latency average = 20.3268
	minimum = 7
	maximum = 65
Slowest flit = 30408
Fragmentation average = 0
	minimum = 0
	maximum = 0
Injected packet rate average = 0.050875
	minimum = 0.038 (at node 2)
	maximum = 0.069 (at node 11)
Accepted packet rate average = 0.05125
	minimum = 0.038 (at node 8)
	maximum = 0.069 (at node 14)
Injected flit rate average = 0.050875
	minimum = 0.038 (at node 2)
	maximum = 0.069 (at node 11)
Accepted flit rate average= 0.05125
	minimum = 0.038 (at node 8)
	maximum = 0.069 (at node 14)
Injected packet length average = 1
Accepted packet length average = 1
Total in-flight flits = 14 (14 measured)
latency change    = 0.00259782
throughput change = 0.0414634
Class 0:
Packet latency average = 20.0664
	minimum = 7
	maximum = 55
Network latency average = 20.0664
	minimum = 7
	maximum = 55
Slowest packet = 30569
Flit latency average = 20.2167
	minimum = 7
	maximum = 65
Slowest flit = 30408
Fragmentation average = 0
	minimum = 0
	maximum = 0
Injected packet rate average = 0.0495417
	minimum = 0.036 (at node 2)
	maximum = 0.0626667 (at node 11)
Accepted packet rate average = 0.0497917
	minimum = 0.0353333 (at node 8)
	maximum = 0.0633333 (at node 14)
Injected flit rate average = 0.0495417
	minimum = 0.036 (at node 2)
	maximum = 0.0626667 (at node 11)
Accepted flit rate average= 0.0497917
	minimum = 0.0353333 (at node 8)
	maximum = 0.0633333 (at node 14)
Injected packet length average = 1
Accepted packet length average = 1
Total in-flight flits = 14 (14 measured)
latency change    = 0.00211134
throughput change = 0.0292887
Class 0:
Packet latency average = 20.5325
	minimum = 7
	maximum = 109
Network latency average = 20.5319
	minimum = 7
	maximum = 109
Slowest packet = 31786
Flit latency average = 20.6412
	minimum = 7
	maximum = 109
Slowest flit = 31786
Fragmentation average = 0
	minimum = 0
	maximum = 0
Injected packet rate average = 0.0484687
	minimum = 0.0365 (at node 2)
	maximum = 0.057 (at node 0)
Accepted packet rate average = 0.0486875
	minimum = 0.037 (at node 8)
	maximum = 0.0575 (at node 0)
Injected flit rate average = 0.0484687
	minimum = 0.0365 (at node 2)
	maximum = 0.057 (at node 0)
Accepted flit rate average= 0.0486875
	minimum = 0.037 (at node 8)
	maximum = 0.0575 (at node 0)
Injected packet length average = 1
Accepted packet length average = 1
Total in-flight flits = 13 (13 measured)
latency change    = 0.0227019
throughput change = 0.0226786
Draining all recorded packets ...
Draining remaining packets ...
Time taken is 3567 cycles
Class 0:
Packet latency average = 19.2382
	minimum = 7
	maximum = 48
Network latency average = 19.2382
	minimum = 7
	maximum = 48
Slowest packet = 32136
Flit latency average = 19.2382
	minimum = 7
	maximum = 48
Slowest flit = 32136
Fragmentation average = 0
	minimum = 0
	maximum = 0
Injected packet rate average = 0.04975
	minimum = 0.026 (at node 12)
	maximum = 0.068 (at node 1)
Accepted packet rate average = 0.04775
	minimum = 0.026 (at node 3)
	maximum = 0.066 (at node 4)
Injected flit rate average = 0.04975
	minimum = 0.026 (at node 12)
	maximum = 0.068 (at node 1)
Accepted flit rate average= 0.04775
	minimum = 0.026 (at node 3)
	maximum = 0.066 (at node 4)
Injected packet length average = 1
Accepted packet length average = 1
Total in-flight flits = 16 (0 measured)
latency change    = 1
throughput change = 1
Class 0:
Packet latency average = 20.0644
	minimum = 7
	maximum = 49
Network latency average = 20.0644
	minimum = 7
	maximum = 49
Slowest packet = 32527
Flit latency average = 20.0644
	minimum = 7
	maximum = 49
Slowest flit = 32527
Fragmentation average = 0
	minimum = 0
	maximum = 0
Injected packet rate average = 0.04925
	minimum = 0.034 (at node 6)
	maximum = 0.065 (at node 1)
Accepted packet rate average = 0.0485
	minimum = 0.033 (at node 9)
	maximum = 0.065 (at node 4)
Injected flit rate average = 0.04925
	minimum = 0.034 (at node 6)
	maximum = 0.065 (at node 1)
Accepted flit rate average= 0.0485
	minimum = 0.033 (at node 9)
	maximum = 0.065 (at node 4)
Injected packet length average = 1
Accepted packet length average = 1
Total in-flight flits = 12 (0 measured)
latency change    = 0.041178
throughput change = 0.0154639
Class 0:
Packet latency average = 22.1662
	minimum = 7
	maximum = 84
Network latency average = 22.1662
	minimum = 7
	maximum = 84
Slowest packet = 33131
Flit latency average = 22.1662
	minimum = 7
	maximum = 84
Slowest flit = 33131
Fragmentation average = 0
	minimum = 0
	maximum = 0
Injected packet rate average = 0.051
	minimum = 0.036 (at node 1)
	maximum = 0.072 (at node 3)
Accepted packet rate average = 0.049625
	minimum = 0.034 (at node 4)
	maximum = 0.068 (at node 12)
Injected flit rate average = 0.051
	minimum = 0.036 (at node 1)
	maximum = 0.072 (at node 3)
Accepted flit rate average= 0.049625
	minimum = 0.034 (at node 4)
	maximum = 0.068 (at node 12)
Injected packet length average = 1
Accepted packet length average = 1
Total in-flight flits = 23 (0 measured)
latency change    = 0.0948205
throughput change = 0.02267
Warmed up ...Time used is 1500 cycles
Class 0:
Packet latency average = 21.5026
	minimum = 7
	maximum = 101
Network latency average = 21.4742
	minimum = 7
	maximum = 101
Slowest packet = 33466
Flit latency average = 22.8175
	minimum = 7
	maximum = 101
Slowest flit = 33466
Fragmentation average = 0
	minimum = 0
	maximum = 0
Injected packet rate average = 0.05
	minimum = 0.034 (at node 8)
	maximum = 0.066 (at node 13)
Accepted packet rate average = 0.051375
	minimum = 0.036 (at node 2)
	maximum = 0.068 (at node 7)
Injected flit rate average = 0.05
	minimum = 0.034 (at node 8)
	maximum = 0.066 (at node 13)
Accepted flit rate average= 0.051375
	minimum = 0.036 (at node 2)
	maximum = 0.068 (at node 7)
Injected packet length average = 1
Accepted packet length average = 1
Total in-flight flits = 12 (12 measured)
latency change    = 0.0308647
throughput change = 0.0340633
Class 0:
Packet latency average = 20.6501
	minimum = 7
	maximum = 101
Network latency average = 20.636
	minimum = 7
	maximum = 101
Slowest packet = 33466
Flit latency average = 21.3449
	minimum = 7
	maximum = 101
Slowest flit = 33466
Fragmentation average = 0
	minimum = 0
	maximum = 0
Injected packet rate average = 0.0494375
	minimum = 0.038 (at node 12)
	maximum = 0.064 (at node 15)
Accepted packet rate average = 0.050375
	minimum = 0.038 (at node 11)
	maximum = 0.064 (at node 15)
Injected flit rate average = 0.0494375
	minimum = 0.038 (at node 12)
	maximum = 0.064 (at node 15)
Accepted flit rate average= 0.050375
	minimum = 0.038 (at node 11)
	maximum = 0.064 (at node 15)
Injected packet length average = 1
Accepted packet length average = 1
Total in-flight flits = 8 (8 measured)
latency change    = 0.0412838
throughput change = 0.0198511
Class 0:
Packet latency average = 20.8307
	minimum = 7
	maximum = 101
Network latency average = 20.8203
	minimum = 7
	maximum = 101
Slowest packet = 33466
Flit latency average = 21.303
	minimum = 7
	maximum = 101
Slowest flit = 33466
Fragmentation average = 0
	minimum = 0
	maximum = 0
Injected packet rate average = 0.0488333
	minimum = 0.04 (at node 8)
	maximum = 0.0593333 (at node 4)
Accepted packet rate average = 0.0489583
	minimum = 0.04 (at node 11)
	maximum = 0.0593333 (at node 1)
Injected flit rate average = 0.0488333
	minimum = 0.04 (at node 8)
	maximum = 0.0593333 (at node 4)
Accepted flit rate average= 0.0489583
	minimum = 0.04 (at node 11)
	maximum = 0.0593333 (at node 1)
Injected packet length average = 1
Accepted packet length average = 1
Total in-flight flits = 20 (20 measured)
latency change    = 0.00867302
throughput change = 0.0289362
Draining all recorded packets ...
Draining remaining packets ...
Time taken is 3066 cycles
Class 0:
Packet latency average = 20.8731
	minimum = 7
	maximum = 69
Network latency average = 20.8731
	minimum = 7
	maximum = 69
Slowest packet = 34469
Flit latency average = 20.8731
	minimum = 7
	maximum = 69
Slowest flit = 34469
Fragmentation average = 0
	minimum = 0
	maximum = 0
Injected packet rate average = 0.053
	minimum = 0.036 (at node 4)
	maximum = 0.068 (at node 10)
Accepted packet rate average = 0.05025
	minimum = 0.036 (at node 1)
	maximum = 0.066 (at node 10)
Injected flit rate average = 0.053
	minimum = 0.036 (at node 4)
	maximum = 0.068 (at node 10)
Accepted flit rate average= 0.05025
	minimum = 0.036 (at node 1)
	maximum = 0.066 (at node 10)
Injected packet length average = 1
Accepted packet length average = 1
Total in-flight flits = 22 (0 measured)
latency change    = 1
throughput change = 1
Class 0:
Packet latency average = 22.5959
	minimum = 7
	maximum = 75
Network latency average = 22.5685
	minimum = 7
	maximum = 75
Slowest packet = 34766
Flit latency average = 22.5685
	minimum = 7
	maximum = 75
Slowest flit = 34766
Fragmentation average = 0
	minimum = 0
	maximum = 0
Injected packet rate average = 0.0534375
	minimum = 0.045 (at node 0)
	maximum = 0.062 (at node 9)
Accepted packet rate average = 0.0524375
	minimum = 0.045 (at node 0)
	maximum = 0.061 (at node 5)
Injected flit rate average = 0.0534375
	minimum = 0.045 (at node 0)
	maximum = 0.062 (at node 9)
Accepted flit rate average= 0.0524375
	minimum = 0.045 (at node 0)
	maximum = 0.061 (at node 5)
Injected packet length average = 1
Accepted packet length average = 1
Total in-flight flits = 16 (0 measured)
latency change    = 0.0762443
throughput change = 0.0417163
Class 0:
Packet latency average = 20.6545
	minimum = 7
	maximum = 70
Network latency average = 20.6545
	minimum = 7
	maximum = 70
Slowest packet = 35223
Flit latency average = 20.6545
	minimum = 7
	maximum = 70
Slowest flit = 35223
Fragmentation average = 0
	minimum = 0
	maximum = 0
Injected packet rate average = 0.0475
	minimum = 0.028 (at node 12)
	maximum = 0.076 (at node 14)
Accepted packet rate average = 0.04775
	minimum = 0.036 (at node 3)
	maximum = 0.07 (at node 11)
Injected flit rate average = 0.0475
	minimum = 0.028 (at node 12)
	maximum = 0.076 (at node 14)
Accepted flit rate average= 0.04775
	minimum = 0.036 (at node 3)
	maximum = 0.07 (at node 11)
Injected packet length average = 1
Accepted packet length average = 1
Total in-flight flits = 14 (0 measured)
latency change    = 0.093999
throughput change = 0.0981675
Warmed up ...Time used is 1500 cycles
Class 0:
Packet latency average = 21.4476
	minimum = 7
	maximum = 64
Network latency average = 21.4476
	minimum = 7
	maximum = 64
Slowest packet = 35956
Flit latency average = 21.4938
	minimum = 7
	maximum = 64
Slowest flit = 35956
Fragmentation average = 0
	minimum = 0
	maximum = 0
Injected packet rate average = 0.05125
	minimum = 0.038 (at node 5)
	maximum = 0.072 (at node 6)
Accepted packet rate average = 0.050625
	minimum = 0.036 (at node 5)
	maximum = 0.07 (at node 9)
Injected flit rate average = 0.05125
	minimum = 0.038 (at node 5)
	maximum = 0.072 (at node 6)
Accepted flit rate average= 0.050625
	minimum = 0.036 (at node 5)
	maximum = 0.07 (at node 9)
Injected packet length average = 1
Accepted packet length average = 1
Total in-flight flits = 19 (19 measured)
latency change    = 0.0369795
throughput change = 0.0567901
Class 0:
Packet latency average = 21.2541
	minimum = 7
	maximum = 64
Network latency average = 21.2541
	minimum = 7
	maximum = 64
Slowest packet = 35956
Flit latency average = 21.2809
	minimum = 7
	maximum = 64
Slowest flit = 35956
Fragmentation average = 0
	minimum = 0
	maximum = 0
Injected packet rate average = 0.0509375
	minimum = 0.036 (at node 15)
	maximum = 0.064 (at node 12)
Accepted packet rate average = 0.0500625
	minimum = 0.036 (at node 15)
	maximum = 0.064 (at node 9)
Injected flit rate average = 0.0509375
	minimum = 0.036 (at node 15)
	maximum = 0.064 (at node 12)
Accepted flit rate average= 0.0500625
	minimum = 0.036 (at node 15)
	maximum = 0.064 (at node 9)
Injected packet length average = 1
Accepted packet length average = 1
Total in-flight flits = 28 (28 measured)
latency change    = 0.00910132
throughput change = 0.011236
Class 0:
Packet latency average = 23.458
	minimum = 7
	maximum = 208
Network latency average = 23.1324
	minimum = 7
	maximum = 182
Slowest packet = 36537
Flit latency average = 23.1284
	minimum = 7
	maximum = 182
Slowest flit = 36537
Fragmentation average = 0
	minimum = 0
	maximum = 0
Injected packet rate average = 0.0508333
	minimum = 0.0386667 (at node 5)
	maximum = 0.0593333 (at node 6)
Accepted packet rate average = 0.050625
	minimum = 0.0386667 (at node 5)
	maximum = 0.0593333 (at node 9)
Injected flit rate average = 0.0508333
	minimum = 0.0386667 (at node 5)
	maximum = 0.0593333 (at node 6)
Accepted flit rate average= 0.050625
	minimum = 0.0386667 (at node 5)
	maximum = 0.0593333 (at node 9)
Injected packet length average = 1
Accepted packet length average = 1
Total in-flight flits = 19 (19 measured)
latency change    = 0.0939478
throughput change = 0.0111111
Class 0:
Packet latency average = 23.1308
	minimum = 7
	maximum = 208
Network latency average = 22.8825
	minimum = 7
	maximum = 182
Slowest packet = 36537
Flit latency average = 22.8817
	minimum = 7
	maximum = 182
Slowest flit = 36537
Fragmentation average = 0
	minimum = 0
	maximum = 0
Injected packet rate average = 0.0497812
	minimum = 0.043 (at node 5)
	maximum = 0.055 (at node 3)
Accepted packet rate average = 0.0496562
	minimum = 0.0425 (at node 5)
	maximum = 0.056 (at node 9)
Injected flit rate average = 0.0497812
	minimum = 0.043 (at node 5)
	maximum = 0.055 (at node 3)
Accepted flit rate average= 0.0496562
	minimum = 0.0425 (at node 5)
	maximum = 0.056 (at node 9)
Injected packet length average = 1
Accepted packet length average = 1
Total in-flight flits = 18 (18 measured)
latency change    = 0.0141438
throughput change = 0.0195091
Class 0:
Packet latency average = 22.9384
	minimum = 7
	maximum = 208
Network latency average = 22.7393
	minimum = 7
	maximum = 182
Slowest packet = 36537
Flit latency average = 22.7396
	minimum = 7
	maximum = 182
[...]
Flit latency average = 20.9553
	minimum = 7
	maximum = 79
Slowest flit = 135665
Fragmentation average = 0
	minimum = 0
	maximum = 0
Injected packet rate average = 0.0485312
	minimum = 0.041 (at node 7)
	maximum = 0.0555 (at node 15)
Accepted packet rate average = 0.04825
	minimum = 0.0415 (at node 13)
	maximum = 0.0555 (at node 15)
Injected flit rate average = 0.0485312
	minimum = 0.041 (at node 7)
	maximum = 0.0555 (at node 15)
Accepted flit rate average= 0.04825
	minimum = 0.0415 (at node 13)
	maximum = 0.0555 (at node 15)
Injected packet length average = 1
Accepted packet length average = 1
Total in-flight flits = 26 (26 measured)
latency change    = 0.0110953
throughput change = 0.0267703
Draining all recorded packets ...
Draining remaining packets ...
Time taken is 3582 cycles
Class 0:
Packet latency average = 21.4057
	minimum = 7
	maximum = 66
Network latency average = 21.4057
	minimum = 7
	maximum = 66
Slowest packet = 136769
Flit latency average = 21.4057
	minimum = 7
	maximum = 66
Slowest flit = 136769
Fragmentation average = 0
	minimum = 0
	maximum = 0
Injected packet rate average = 0.049875
	minimum = 0.022 (at node 1)
	maximum = 0.068 (at node 10)
Accepted packet rate average = 0.048375
	minimum = 0.022 (at node 4)
	maximum = 0.066 (at node 3)
Injected flit rate average = 0.049875
	minimum = 0.022 (at node 1)
	maximum = 0.068 (at node 10)
Accepted flit rate average= 0.048375
	minimum = 0.022 (at node 4)
	maximum = 0.066 (at node 3)
Injected packet length average = 1
Accepted packet length average = 1
Total in-flight flits = 12 (0 measured)
latency change    = 1
throughput change = 1
Class 0:
Packet latency average = 22.0039
	minimum = 7
	maximum = 85
Network latency average = 22.0039
	minimum = 7
	maximum = 85
Slowest packet = 137135
Flit latency average = 22.0039
	minimum = 7
	maximum = 85
Slowest flit = 137135
Fragmentation average = 0
	minimum = 0
	maximum = 0
Injected packet rate average = 0.0491875
	minimum = 0.033 (at node 1)
	maximum = 0.057 (at node 12)
Accepted packet rate average = 0.0478125
	minimum = 0.032 (at node 4)
	maximum = 0.056 (at node 3)
Injected flit rate average = 0.0491875
	minimum = 0.033 (at node 1)
	maximum = 0.057 (at node 12)
Accepted flit rate average= 0.0478125
	minimum = 0.032 (at node 4)
	maximum = 0.056 (at node 3)
Injected packet length average = 1
Accepted packet length average = 1
Total in-flight flits = 22 (0 measured)
latency change    = 0.0271877
throughput change = 0.0117647
Class 0:
Packet latency average = 21.7482
	minimum = 7
	maximum = 66
Network latency average = 21.7482
	minimum = 7
	maximum = 66
Slowest packet = 137453
Flit latency average = 21.7482
	minimum = 7
	maximum = 66
Slowest flit = 137453
Fragmentation average = 0
	minimum = 0
	maximum = 0
Injected packet rate average = 0.053
	minimum = 0.034 (at node 4)
	maximum = 0.072 (at node 10)
Accepted packet rate average = 0.053125
	minimum = 0.032 (at node 1)
	maximum = 0.072 (at node 10)
Injected flit rate average = 0.053
	minimum = 0.034 (at node 4)
	maximum = 0.072 (at node 10)
Accepted flit rate average= 0.053125
	minimum = 0.032 (at node 1)
	maximum = 0.072 (at node 10)
Injected packet length average = 1
Accepted packet length average = 1
Total in-flight flits = 21 (0 measured)
latency change    = 0.0117566
throughput change = 0.1
Warmed up ...Time used is 1500 cycles
Class 0:
Packet latency average = 21.1455
	minimum = 7
	maximum = 71
Network latency average = 21.1455
	minimum = 7
	maximum = 71
Slowest packet = 138072
Flit latency average = 21.4261
	minimum = 7
	maximum = 71
Slowest flit = 138072
Fragmentation average = 0
	minimum = 0
	maximum = 0
Injected packet rate average = 0.04925
	minimum = 0.028 (at node 1)
	maximum = 0.07 (at node 4)
Accepted packet rate average = 0.049875
	minimum = 0.03 (at node 2)
	maximum = 0.07 (at node 11)
Injected flit rate average = 0.04925
	minimum = 0.028 (at node 1)
	maximum = 0.07 (at node 4)
Accepted flit rate average= 0.049875
	minimum = 0.03 (at node 2)
	maximum = 0.07 (at node 11)
Injected packet length average = 1
Accepted packet length average = 1
Total in-flight flits = 16 (16 measured)
latency change    = 0.0285041
throughput change = 0.0651629
Class 0:
Packet latency average = 21.0981
	minimum = 7
	maximum = 71
Network latency average = 21.0981
	minimum = 7
	maximum = 71
Slowest packet = 138072
Flit latency average = 21.2439
	minimum = 7
	maximum = 71
Slowest flit = 138072
Fragmentation average = 0
	minimum = 0
	maximum = 0
Injected packet rate average = 0.0480625
	minimum = 0.03 (at node 1)
	maximum = 0.059 (at node 10)
Accepted packet rate average = 0.0484375
	minimum = 0.032 (at node 4)
	maximum = 0.06 (at node 11)
Injected flit rate average = 0.0480625
	minimum = 0.03 (at node 1)
	maximum = 0.059 (at node 10)
Accepted flit rate average= 0.0484375
	minimum = 0.032 (at node 4)
	maximum = 0.06 (at node 11)
Injected packet length average = 1
Accepted packet length average = 1
Total in-flight flits = 15 (15 measured)
latency change    = 0.00224472
throughput change = 0.0296774
Class 0:
Packet latency average = 21.6092
	minimum = 7
	maximum = 71
Network latency average = 21.6041
	minimum = 7
	maximum = 71
Slowest packet = 138072
Flit latency average = 21.6899
	minimum = 7
	maximum = 71
Slowest flit = 138072
Fragmentation average = 0
	minimum = 0
	maximum = 0
Injected packet rate average = 0.0498333
	minimum = 0.0393333 (at node 1)
	maximum = 0.0613333 (at node 14)
Accepted packet rate average = 0.0497083
	minimum = 0.04 (at node 4)
	maximum = 0.0606667 (at node 11)
Injected flit rate average = 0.0498333
	minimum = 0.0393333 (at node 1)
	maximum = 0.0613333 (at node 14)
Accepted flit rate average= 0.0497083
	minimum = 0.04 (at node 4)
	maximum = 0.0606667 (at node 11)
Injected packet length average = 1
Accepted packet length average = 1
Total in-flight flits = 24 (24 measured)
latency change    = 0.0236506
throughput change = 0.0255658
Class 0:
Packet latency average = 21.5709
	minimum = 7
	maximum = 84
Network latency average = 21.5672
	minimum = 7
	maximum = 84
Slowest packet = 139303
Flit latency average = 21.6299
	minimum = 7
	maximum = 84
Slowest flit = 139303
Fragmentation average = 0
	minimum = 0
	maximum = 0
Injected packet rate average = 0.05125
	minimum = 0.044 (at node 11)
	maximum = 0.06 (at node 14)
Accepted packet rate average = 0.0513438
	minimum = 0.044 (at node 4)
	maximum = 0.0605 (at node 11)
Injected flit rate average = 0.05125
	minimum = 0.044 (at node 11)
	maximum = 0.06 (at node 14)
Accepted flit rate average= 0.0513438
	minimum = 0.044 (at node 4)
	maximum = 0.0605 (at node 11)
Injected packet length average = 1
Accepted packet length average = 1
Total in-flight flits = 18 (18 measured)
latency change    = 0.00177623
throughput change = 0.0318523
Draining all recorded packets ...
Draining remaining packets ...
Time taken is 3561 cycles
Class 0:
Packet latency average = 19.9711
	minimum = 7
	maximum = 55
Network latency average = 19.9711
	minimum = 7
	maximum = 55
Slowest packet = 139606
Flit latency average = 19.9711
	minimum = 7
	maximum = 55
Slowest flit = 139606
Fragmentation average = 0
	minimum = 0
	maximum = 0
Injected packet rate average = 0.049125
	minimum = 0.036 (at node 2)
	maximum = 0.07 (at node 5)
Accepted packet rate average = 0.0475
	minimum = 0.032 (at node 2)
	maximum = 0.07 (at node 5)
Injected flit rate average = 0.049125
	minimum = 0.036 (at node 2)
	maximum = 0.07 (at node 5)
Accepted flit rate average= 0.0475
	minimum = 0.032 (at node 2)
	maximum = 0.07 (at node 5)
Injected packet length average = 1
Accepted packet length average = 1
Total in-flight flits = 13 (0 measured)
latency change    = 1
throughput change = 1
Class 0:
Packet latency average = 20.1615
	minimum = 7
	maximum = 59
Network latency average = 20.1615
	minimum = 7
	maximum = 59
Slowest packet = 140252
Flit latency average = 20.1615
	minimum = 7
	maximum = 59
Slowest flit = 140252
Fragmentation average = 0
	minimum = 0
	maximum = 0
Injected packet rate average = 0.0495625
	minimum = 0.04 (at node 2)
	maximum = 0.057 (at node 15)
Accepted packet rate average = 0.048
	minimum = 0.039 (at node 8)
	maximum = 0.057 (at node 15)
Injected flit rate average = 0.0495625
	minimum = 0.04 (at node 2)
	maximum = 0.057 (at node 15)
Accepted flit rate average= 0.048
	minimum = 0.039 (at node 8)
	maximum = 0.057 (at node 15)
Injected packet length average = 1
Accepted packet length average = 1
Total in-flight flits = 25 (0 measured)
latency change    = 0.00944404
throughput change = 0.0104167
Class 0:
Packet latency average = 23.7299
	minimum = 7
	maximum = 95
Network latency average = 23.7032
	minimum = 7
	maximum = 95
Slowest packet = 140328
Flit latency average = 23.7032
	minimum = 7
	maximum = 95
Slowest flit = 140328
Fragmentation average = 0
	minimum = 0
	maximum = 0
Injected packet rate average = 0.05
	minimum = 0.024 (at node 14)
	maximum = 0.072 (at node 4)
Accepted packet rate average = 0.051375
	minimum = 0.024 (at node 11)
	maximum = 0.074 (at node 1)
Injected flit rate average = 0.05
	minimum = 0.024 (at node 14)
	maximum = 0.072 (at node 4)
Accepted flit rate average= 0.051375
	minimum = 0.024 (at node 11)
	maximum = 0.074 (at node 1)
Injected packet length average = 1
Accepted packet length average = 1
Total in-flight flits = 14 (0 measured)
latency change    = 0.150378
throughput change = 0.0656934
Warmed up ...Time used is 1500 cycles
Class 0:
Packet latency average = 20.6047
	minimum = 7
	maximum = 57
Network latency average = 20.6047
	minimum = 7
	maximum = 57
Slowest packet = 140832
Flit latency average = 20.7157
	minimum = 7
	maximum = 57
Slowest flit = 140832
Fragmentation average = 0
	minimum = 0
	maximum = 0
Injected packet rate average = 0.05
	minimum = 0.034 (at node 5)
	maximum = 0.074 (at node 1)
Accepted packet rate average = 0.050125
	minimum = 0.034 (at node 5)
	maximum = 0.08 (at node 4)
Injected flit rate average = 0.05
	minimum = 0.034 (at node 5)
	maximum = 0.074 (at node 1)
Accepted flit rate average= 0.050125
	minimum = 0.034 (at node 5)
	maximum = 0.08 (at node 4)
Injected packet length average = 1
Accepted packet length average = 1
Total in-flight flits = 13 (13 measured)
latency change    = 0.151678
throughput change = 0.0249377
Class 0:
Packet latency average = 20.7948
	minimum = 7
	maximum = 65
Network latency average = 20.7948
	minimum = 7
	maximum = 65
Slowest packet = 141306
Flit latency average = 20.8479
	minimum = 7
	maximum = 65
Slowest flit = 141306
Fragmentation average = 0
	minimum = 0
	maximum = 0
Injected packet rate average = 0.0490625
	minimum = 0.04 (at node 14)
	maximum = 0.062 (at node 1)
Accepted packet rate average = 0.0493125
	minimum = 0.04 (at node 11)
	maximum = 0.065 (at node 4)
Injected flit rate average = 0.0490625
	minimum = 0.04 (at node 14)
	maximum = 0.062 (at node 1)
Accepted flit rate average= 0.0493125
	minimum = 0.04 (at node 11)
	maximum = 0.065 (at node 4)
Injected packet length average = 1
Accepted packet length average = 1
Total in-flight flits = 10 (10 measured)
latency change    = 0.0091459
throughput change = 0.0164766
Class 0:
Packet latency average = 21.2573
	minimum = 7
	maximum = 91
Network latency average = 21.2573
	minimum = 7
	maximum = 91
Slowest packet = 141805
Flit latency average = 21.2872
	minimum = 7
	maximum = 91
Slowest flit = 141805
Fragmentation average = 0
	minimum = 0
	maximum = 0
Injected packet rate average = 0.0495
	minimum = 0.0426667 (at node 0)
	maximum = 0.058 (at node 1)
Accepted packet rate average = 0.0493333
	minimum = 0.0426667 (at node 0)
	maximum = 0.0586667 (at node 4)
Injected flit rate average = 0.0495
	minimum = 0.0426667 (at node 0)
	maximum = 0.058 (at node 1)
Accepted flit rate average= 0.0493333
	minimum = 0.0426667 (at node 0)
	maximum = 0.0586667 (at node 4)
Injected packet length average = 1
Accepted packet length average = 1
Total in-flight flits = 18 (18 measured)
latency change    = 0.0217538
throughput change = 0.000422297
Class 0:
Packet latency average = 21.4071
	minimum = 7
	maximum = 91
Network latency average = 21.4071
	minimum = 7
	maximum = 91
Slowest packet = 141805
Flit latency average = 21.4281
	minimum = 7
	maximum = 91
Slowest flit = 141805
Fragmentation average = 0
	minimum = 0
	maximum = 0
Injected packet rate average = 0.0495312
	minimum = 0.043 (at node 0)
	maximum = 0.055 (at node 2)
Accepted packet rate average = 0.0495625
	minimum = 0.043 (at node 0)
	maximum = 0.056 (at node 8)
Injected flit rate average = 0.0495312
	minimum = 0.043 (at node 0)
	maximum = 0.055 (at node 2)
Accepted flit rate average= 0.0495625
	minimum = 0.043 (at node 0)
	maximum = 0.056 (at node 8)
Injected packet length average = 1
Accepted packet length average = 1
Total in-flight flits = 13 (13 measured)
latency change    = 0.00700046
throughput change = 0.00462379
Draining all recorded packets ...
Draining remaining packets ...
Time taken is 3587 cycles
Class 0:
Packet latency average = 19.5289
	minimum = 7
	maximum = 51
Network latency average = 19.5289
	minimum = 7
	maximum = 51
Slowest packet = 142522
Flit latency average = 19.5289
	minimum = 7
	maximum = 51
Slowest flit = 142522
Fragmentation average = 0
	minimum = 0
	maximum = 0
Injected packet rate average = 0.047125
	minimum = 0.03 (at node 6)
	maximum = 0.064 (at node 4)
Accepted packet rate average = 0.045375
	minimum = 0.028 (at node 9)
	maximum = 0.064 (at node 1)
Injected flit rate average = 0.047125
	minimum = 0.03 (at node 6)
	maximum = 0.064 (at node 4)
Accepted flit rate average= 0.045375
	minimum = 0.028 (at node 9)
	maximum = 0.064 (at node 1)
Injected packet length average = 1
Accepted packet length average = 1
Total in-flight flits = 14 (0 measured)
latency change    = 1
throughput change = 1
Class 0:
Packet latency average = 20.25
	minimum = 7
	maximum = 60
Network latency average = 20.25
	minimum = 7
	maximum = 60
Slowest packet = 142777
Flit latency average = 20.25
	minimum = 7
	maximum = 60
Slowest flit = 142777
Fragmentation average = 0
	minimum = 0
	maximum = 0
Injected packet rate average = 0.049
	minimum = 0.041 (at node 8)
	maximum = 0.057 (at node 14)
Accepted packet rate average = 0.04775
	minimum = 0.039 (at node 2)
	maximum = 0.057 (at node 11)
Injected flit rate average = 0.049
	minimum = 0.041 (at node 8)
	maximum = 0.057 (at node 14)
Accepted flit rate average= 0.04775
	minimum = 0.039 (at node 2)
	maximum = 0.057 (at node 11)
Injected packet length average = 1
Accepted packet length average = 1
Total in-flight flits = 20 (0 measured)
latency change    = 0.0356086
throughput change = 0.0497382
Class 0:
Packet latency average = 21.8182
	minimum = 7
	maximum = 61
Network latency average = 21.8182
	minimum = 7
	maximum = 61
Slowest packet = 143132
Flit latency average = 21.8182
	minimum = 7
	maximum = 61
Slowest flit = 143132
Fragmentation average = 0
	minimum = 0
	maximum = 0
Injected packet rate average = 0.05
	minimum = 0.03 (at node 9)
	maximum = 0.068 (at node 12)
Accepted packet rate average = 0.050875
	minimum = 0.034 (at node 6)
	maximum = 0.072 (at node 3)
Injected flit rate average = 0.05
	minimum = 0.03 (at node 9)
	maximum = 0.068 (at node 12)
Accepted flit rate average= 0.050875
	minimum = 0.034 (at node 6)
	maximum = 0.072 (at node 3)
Injected packet length average = 1
Accepted packet length average = 1
Total in-flight flits = 13 (0 measured)
latency change    = 0.071875
throughput change = 0.0614251
Warmed up ...Time used is 1500 cycles
Class 0:
Packet latency average = 21.3689
	minimum = 7
	maximum = 64
Network latency average = 21.3689
	minimum = 7
	maximum = 64
Slowest packet = 143818
Flit latency average = 21.4565
	minimum = 7
	maximum = 64
Slowest flit = 143818
Fragmentation average = 0
	minimum = 0
	maximum = 0
Injected packet rate average = 0.0475
	minimum = 0.034 (at node 15)
	maximum = 0.068 (at node 1)
Accepted packet rate average = 0.047375
	minimum = 0.034 (at node 15)
	maximum = 0.064 (at node 4)
Injected flit rate average = 0.0475
	minimum = 0.034 (at node 15)
	maximum = 0.068 (at node 1)
Accepted flit rate average= 0.047375
	minimum = 0.034 (at node 15)
	maximum = 0.064 (at node 4)
Injected packet length average = 1
Accepted packet length average = 1
Total in-flight flits = 14 (14 measured)
latency change    = 0.0210273
throughput change = 0.0738786
Class 0:
Packet latency average = 20.9723
	minimum = 7
	maximum = 64
Network latency average = 20.9723
	minimum = 7
	maximum = 64
Slowest packet = 143818
Flit latency average = 21.022
	minimum = 7
	maximum = 64
Slowest flit = 143818
Fragmentation average = 0
	minimum = 0
	maximum = 0
Injected packet rate average = 0.048375
	minimum = 0.036 (at node 7)
	maximum = 0.06 (at node 2)
Accepted packet rate average = 0.04825
	minimum = 0.037 (at node 13)
	maximum = 0.059 (at node 4)
Injected flit rate average = 0.048375
	minimum = 0.036 (at node 7)
	maximum = 0.06 (at node 2)
Accepted flit rate average= 0.04825
	minimum = 0.037 (at node 13)
	maximum = 0.059 (at node 4)
Injected packet length average = 1
Accepted packet length average = 1
Total in-flight flits = 15 (15 measured)
latency change    = 0.0189068
throughput change = 0.0181347
Class 0:
Packet latency average = 20.9767
	minimum = 7
	maximum = 64
Network latency average = 20.9767
	minimum = 7
	maximum = 64
Slowest packet = 143818
Flit latency average = 21.0094
	minimum = 7
	maximum = 64
Slowest flit = 143818
Fragmentation average = 0
	minimum = 0
	maximum = 0
Injected packet rate average = 0.049
	minimum = 0.0406667 (at node 8)
	maximum = 0.064 (at node 2)
Accepted packet rate average = 0.04875
	minimum = 0.0406667 (at node 2)
	maximum = 0.0626667 (at node 8)
Injected flit rate average = 0.049
	minimum = 0.0406667 (at node 8)
	maximum = 0.064 (at node 2)
Accepted flit rate average= 0.04875
	minimum = 0.0406667 (at node 2)
	maximum = 0.0626667 (at node 8)
Injected packet length average = 1
Accepted packet length average = 1
Total in-flight flits = 19 (19 measured)
latency change    = 0.000206504
throughput change = 0.0102564
Class 0:
Packet latency average = 21.1616
	minimum = 7
	maximum = 71
Network latency average = 21.1616
	minimum = 7
	maximum = 71
Slowest packet = 144698
Flit latency average = 21.1839
	minimum = 7
	maximum = 71
Slowest flit = 144698
Fragmentation average = 0
	minimum = 0
	maximum = 0
Injected packet rate average = 0.0502187
	minimum = 0.0395 (at node 8)
	maximum = 0.0585 (at node 2)
Accepted packet rate average = 0.0503125
	minimum = 0.0395 (at node 2)
	maximum = 0.059 (at node 8)
Injected flit rate average = 0.0502187
	minimum = 0.0395 (at node 8)
	maximum = 0.0585 (at node 2)
Accepted flit rate average= 0.0503125
	minimum = 0.0395 (at node 2)
	maximum = 0.059 (at node 8)
Injected packet length average = 1
Accepted packet length average = 1
Total in-flight flits = 10 (10 measured)
latency change    = 0.00873703
throughput change = 0.0310559
Draining all recorded packets ...
Draining remaining packets ...
Time taken is 3564 cycles
====== Overall Traffic Statistics ======
====== Traffic class 0 ======
Packet latency average = 21.4598 (50 samples)
	minimum = 7 (50 samples)
	maximum = 95.66 (50 samples)
Network latency average = 21.433 (50 samples)
	minimum = 7 (50 samples)
	maximum = 93.66 (50 samples)
Flit latency average = 21.4975 (50 samples)
	minimum = 7 (50 samples)
	maximum = 94.02 (50 samples)
Fragmentation average = 0 (50 samples)
	minimum = 0 (50 samples)
	maximum = 0 (50 samples)
Injected packet rate average = 0.050132 (50 samples)
	minimum = 0.0420537 (50 samples)
	maximum = 0.0589295 (50 samples)
Accepted packet rate average = 0.0501067 (50 samples)
	minimum = 0.0419798 (50 samples)
	maximum = 0.0590172 (50 samples)
Injected flit rate average = 0.050132 (50 samples)
	minimum = 0.0420537 (50 samples)
	maximum = 0.0589295 (50 samples)
Accepted flit rate average = 0.0501067 (50 samples)
	minimum = 0.0419798 (50 samples)
	maximum = 0.0590172 (50 samples)
Injected packet size average = 1 (50 samples)
Accepted packet size average = 1 (50 samples)
Hops average = 3.49387 (50 samples)
Total run time 2.31029
