BEGIN Configuration File: /tmp/tmpfdgqvplg.cfg
topology = mesh;
k = 4;
n = 2;
routing_function = gnn_port_score_route_4x4_v4;
num_vcs = 4;
vc_buf_size = 4;
wait_for_tail_credit = 1;
vc_allocator = islip;
sw_allocator = islip;
alloc_iters = 1;
credit_delay = 2;
routing_delay = 1;
vc_alloc_delay = 1;
sw_alloc_delay = 1;
input_speedup = 2;
output_speedup = 1;
internal_speedup = 1.0;
traffic = hotspot;
packet_size = 1;
sim_type = latency;
injection_rate = 0.01;
warmup_periods = 3;
sample_period = 500;
sim_count = 50;
seed = 1;
link_failures = 0;
fail_seed = 101;

END Configuration File: /tmp/tmpfdgqvplg.cfg
Class 0:
Packet latency average = 19.7791
	minimum = 7
	maximum = 37
Network latency average = 19.7791
	minimum = 7
	maximum = 37
Slowest packet = 55
Flit latency average = 19.7791
	minimum = 7
	maximum = 37
Slowest flit = 55
Fragmentation average = 0
	minimum = 0
	maximum = 0
Injected packet rate average = 0.011125
	minimum = 0.006 (at node 1)
	maximum = 0.022 (at node 7)
Accepted packet rate average = 0.01075
	minimum = 0 (at node 0)
	maximum = 0.172 (at node 11)
Injected flit rate average = 0.011125
	minimum = 0.006 (at node 1)
	maximum = 0.022 (at node 7)
Accepted flit rate average= 0.01075
	minimum = 0 (at node 0)
	maximum = 0.172 (at node 11)
Injected packet length average = 1
Accepted packet length average = 1
Total in-flight flits = 3 (0 measured)
latency change    = 1
throughput change = 1
Class 0:
Packet latency average = 19.976
	minimum = 7
	maximum = 37
Network latency average = 19.976
	minimum = 7
	maximum = 37
Slowest packet = 55
Flit latency average = 19.976
	minimum = 7
	maximum = 37
Slowest flit = 55
Fragmentation average = 0
	minimum = 0
	maximum = 0
Injected packet rate average = 0.0108125
	minimum = 0.006 (at node 2)
	maximum = 0.019 (at node 7)
Accepted packet rate average = 0.0104375
	minimum = 0 (at node 0)
	maximum = 0.167 (at node 11)
Injected flit rate average = 0.0108125
	minimum = 0.006 (at node 2)
	maximum = 0.019 (at node 7)
Accepted flit rate average= 0.0104375
	minimum = 0 (at node 0)
	maximum = 0.167 (at node 11)
Injected packet length average = 1
Accepted packet length average = 1
Total in-flight flits = 6 (0 measured)
latency change    = 0.00986072
throughput change = 0.0299401
Class 0:
Packet latency average = 21.28
	minimum = 7
	maximum = 35
Network latency average = 21.28
	minimum = 7
	maximum = 35
Slowest packet = 236
Flit latency average = 21.28
	minimum = 7
	maximum = 35
Slowest flit = 236
Fragmentation average = 0
	minimum = 0
	maximum = 0
Injected packet rate average = 0.009
	minimum = 0.002 (at node 6)
	maximum = 0.026 (at node 12)
Accepted packet rate average = 0.009375
	minimum = 0 (at node 0)
	maximum = 0.15 (at node 11)
Injected flit rate average = 0.009
	minimum = 0.002 (at node 6)
	maximum = 0.026 (at node 12)
Accepted flit rate average= 0.009375
	minimum = 0 (at node 0)
	maximum = 0.15 (at node 11)
Injected packet length average = 1
Accepted packet length average = 1
Total in-flight flits = 3 (0 measured)
latency change    = 0.0612759
throughput change = 0.113333
Warmed up ...Time used is 1500 cycles
Class 0:
Packet latency average = 20.2427
	minimum = 7
	maximum = 35
Network latency average = 20.2427
	minimum = 7
	maximum = 35
Slowest packet = 325
Flit latency average = 20.3679
	minimum = 7
	maximum = 35
Slowest flit = 325
Fragmentation average = 0
	minimum = 0
	maximum = 0
Injected packet rate average = 0.0135
	minimum = 0.006 (at node 2)
	maximum = 0.026 (at node 8)
Accepted packet rate average = 0.01325
	minimum = 0 (at node 0)
	maximum = 0.212 (at node 11)
Injected flit rate average = 0.0135
	minimum = 0.006 (at node 2)
	maximum = 0.026 (at node 8)
Accepted flit rate average= 0.01325
	minimum = 0 (at node 0)
	maximum = 0.212 (at node 11)
Injected packet length average = 1
Accepted packet length average = 1
Total in-flight flits = 5 (5 measured)
latency change    = 0.0512422
throughput change = 0.292453
Class 0:
Packet latency average = 20.5526
	minimum = 7
	maximum = 35
Network latency average = 20.5526
	minimum = 7
	maximum = 35
Slowest packet = 325
Flit latency average = 20.6166
	minimum = 7
	maximum = 35
Slowest flit = 325
Fragmentation average = 0
	minimum = 0
	maximum = 0
Injected packet rate average = 0.0119375
	minimum = 0.007 (at node 0)
	maximum = 0.019 (at node 8)
Accepted packet rate average = 0.0120625
	minimum = 0 (at node 0)
	maximum = 0.193 (at node 11)
Injected flit rate average = 0.0119375
	minimum = 0.007 (at node 0)
	maximum = 0.019 (at node 8)
Accepted flit rate average= 0.0120625
	minimum = 0 (at node 0)
	maximum = 0.193 (at node 11)
Injected packet length average = 1
Accepted packet length average = 1
Total in-flight flits = 1 (1 measured)
latency change    = 0.015079
throughput change = 0.0984456
Class 0:
Packet latency average = 20.317
	minimum = 7
	maximum = 35
Network latency average = 20.317
	minimum = 7
	maximum = 35
Slowest packet = 325
Flit latency average = 20.3657
	minimum = 7
	maximum = 35
Slowest flit = 325
Fragmentation average = 0
	minimum = 0
	maximum = 0
Injected packet rate average = 0.0112083
	minimum = 0.006 (at node 0)
	maximum = 0.0153333 (at node 8)
Accepted packet rate average = 0.0111667
	minimum = 0 (at node 0)
	maximum = 0.178667 (at node 11)
Injected flit rate average = 0.0112083
	minimum = 0.006 (at node 0)
	maximum = 0.0153333 (at node 8)
Accepted flit rate average= 0.0111667
	minimum = 0 (at node 0)
	maximum = 0.178667 (at node 11)
Injected packet length average = 1
Accepted packet length average = 1
Total in-flight flits = 4 (4 measured)
latency change    = 0.0115987
throughput change = 0.0802239
Class 0:
Packet latency average = 20.1588
	minimum = 7
	maximum = 44
Network latency average = 20.1588
	minimum = 7
	maximum = 44
Slowest packet = 524
Flit latency average = 20.1983
	minimum = 7
	maximum = 44
Slowest flit = 524
Fragmentation average = 0
	minimum = 0
	maximum = 0
Injected packet rate average = 0.0106875
	minimum = 0.0055 (at node 0)
	maximum = 0.0135 (at node 8)
Accepted packet rate average = 0.0107188
	minimum = 0 (at node 0)
	maximum = 0.1715 (at node 11)
Injected flit rate average = 0.0106875
	minimum = 0.0055 (at node 0)
	maximum = 0.0135 (at node 8)
Accepted flit rate average= 0.0107188
	minimum = 0 (at node 0)
	maximum = 0.1715 (at node 11)
Injected packet length average = 1
Accepted packet length average = 1
Total in-flight flits = 2 (2 measured)
latency change    = 0.00784558
throughput change = 0.0417881
Class 0:
Packet latency average = 20.238
	minimum = 7
	maximum = 44
Network latency average = 20.238
	minimum = 7
	maximum = 44
Slowest packet = 524
Flit latency average = 20.2697
	minimum = 7
	maximum = 44
Slowest flit = 524
Fragmentation average = 0
	minimum = 0
	maximum = 0
Injected packet rate average = 0.010475
	minimum = 0.006 (at node 0)
	maximum = 0.0132 (at node 6)
Accepted packet rate average = 0.010475
	minimum = 0 (at node 0)
	maximum = 0.1676 (at node 11)
Injected flit rate average = 0.010475
	minimum = 0.006 (at node 0)
	maximum = 0.0132 (at node 6)
Accepted flit rate average= 0.010475
	minimum = 0 (at node 0)
	maximum = 0.1676 (at node 11)
Injected packet length average = 1
Accepted packet length average = 1
Total in-flight flits = 3 (3 measured)
latency change    = 0.00391132
throughput change = 0.0232697
Class 0:
Packet latency average = 20.488
	minimum = 7
	maximum = 44
Network latency average = 20.488
	minimum = 7
	maximum = 44
Slowest packet = 524
Flit latency average = 20.5129
	minimum = 7
	maximum = 44
Slowest flit = 524
Fragmentation average = 0
	minimum = 0
	maximum = 0
Injected packet rate average = 0.0105208
	minimum = 0.00733333 (at node 0)
	maximum = 0.0133333 (at node 14)
Accepted packet rate average = 0.0104792
	minimum = 0 (at node 0)
	maximum = 0.167667 (at node 11)
Injected flit rate average = 0.0105208
	minimum = 0.00733333 (at node 0)
	maximum = 0.0133333 (at node 14)
Accepted flit rate average= 0.0104792
	minimum = 0 (at node 0)
	maximum = 0.167667 (at node 11)
Injected packet length average = 1
Accepted packet length average = 1
Total in-flight flits = 5 (5 measured)
latency change    = 0.0122032
throughput change = 0.000397614
Draining all recorded packets ...
Draining remaining packets ...
Time taken is 4542 cycles
Class 0:
Packet latency average = 20.6962
	minimum = 7
	maximum = 37
Network latency average = 20.6962
	minimum = 7
	maximum = 37
Slowest packet = 806
Flit latency average = 20.6962
	minimum = 7
	maximum = 37
Slowest flit = 806
Fragmentation average = 0
	minimum = 0
	maximum = 0
Injected packet rate average = 0.010875
	minimum = 0 (at node 10)
	maximum = 0.02 (at node 1)
Accepted packet rate average = 0.009875
	minimum = 0 (at node 0)
	maximum = 0.158 (at node 11)
Injected flit rate average = 0.010875
	minimum = 0 (at node 10)
	maximum = 0.02 (at node 1)
Accepted flit rate average= 0.009875
	minimum = 0 (at node 0)
	maximum = 0.158 (at node 11)
Injected packet length average = 1
Accepted packet length average = 1
Total in-flight flits = 8 (0 measured)
latency change    = 1
throughput change = 1
Class 0:
Packet latency average = 20.1948
	minimum = 7
	maximum = 37
Network latency average = 20.1948
	minimum = 7
	maximum = 37
Slowest packet = 806
Flit latency average = 20.1948
	minimum = 7
	maximum = 37
Slowest flit = 806
Fragmentation average = 0
	minimum = 0
	maximum = 0
Injected packet rate average = 0.009875
	minimum = 0.003 (at node 5)
	maximum = 0.013 (at node 3)
Accepted packet rate average = 0.009625
	minimum = 0 (at node 0)
	maximum = 0.154 (at node 11)
Injected flit rate average = 0.009875
	minimum = 0.003 (at node 5)
	maximum = 0.013 (at node 3)
Accepted flit rate average= 0.009625
	minimum = 0 (at node 0)
	maximum = 0.154 (at node 11)
Injected packet length average = 1
Accepted packet length average = 1
Total in-flight flits = 4 (0 measured)
latency change    = 0.024828
throughput change = 0.025974
Class 0:
Packet latency average = 21.25
	minimum = 7
	maximum = 35
Network latency average = 21.25
	minimum = 7
	maximum = 35
Slowest packet = 910
Flit latency average = 21.25
	minimum = 7
	maximum = 35
Slowest flit = 910
Fragmentation average = 0
	minimum = 0
	maximum = 0
Injected packet rate average = 0.0085
	minimum = 0.002 (at node 15)
	maximum = 0.016 (at node 4)
Accepted packet rate average = 0.008
	minimum = 0 (at node 0)
	maximum = 0.128 (at node 11)
Injected flit rate average = 0.0085
	minimum = 0.002 (at node 15)
	maximum = 0.016 (at node 4)
Accepted flit rate average= 0.008
	minimum = 0 (at node 0)
	maximum = 0.128 (at node 11)
Injected packet length average = 1
Accepted packet length average = 1
Total in-flight flits = 8 (0 measured)
latency change    = 0.0496562
throughput change = 0.203125
Warmed up ...Time used is 1500 cycles
Class 0:
Packet latency average = 18.8841
	minimum = 7
	maximum = 32
Network latency average = 18.8841
	minimum = 7
	maximum = 32
Slowest packet = 979
Flit latency average = 20.0779
	minimum = 7
	maximum = 47
Slowest flit = 970
Fragmentation average = 0
	minimum = 0
	maximum = 0
Injected packet rate average = 0.00925
	minimum = 0.004 (at node 1)
	maximum = 0.016 (at node 10)
Accepted packet rate average = 0.009625
	minimum = 0 (at node 0)
	maximum = 0.154 (at node 11)
Injected flit rate average = 0.00925
	minimum = 0.004 (at node 1)
	maximum = 0.016 (at node 10)
Accepted flit rate average= 0.009625
	minimum = 0 (at node 0)
	maximum = 0.154 (at node 11)
Injected packet length average = 1
Accepted packet length average = 1
Total in-flight flits = 5 (5 measured)
latency change    = 0.125288
throughput change = 0.168831
Class 0:
Packet latency average = 18.4126
	minimum = 7
	maximum = 32
Network latency average = 18.4126
	minimum = 7
	maximum = 32
Slowest packet = 979
Flit latency average = 19.0464
	minimum = 7
	maximum = 47
Slowest flit = 970
Fragmentation average = 0
	minimum = 0
	maximum = 0
Injected packet rate average = 0.0090625
	minimum = 0.004 (at node 1)
	maximum = 0.014 (at node 9)
Accepted packet rate average = 0.0094375
	minimum = 0 (at node 0)
	maximum = 0.151 (at node 11)
Injected flit rate average = 0.0090625
	minimum = 0.004 (at node 1)
	maximum = 0.014 (at node 9)
Accepted flit rate average= 0.0094375
	minimum = 0 (at node 0)
	maximum = 0.151 (at node 11)
Injected packet length average = 1
Accepted packet length average = 1
Total in-flight flits = 2 (2 measured)
latency change    = 0.0256059
throughput change = 0.0198675
Class 0:
Packet latency average = 19.1937
	minimum = 7
	maximum = 45
Network latency average = 19.1937
	minimum = 7
	maximum = 45
Slowest packet = 1188
Flit latency average = 19.5826
	minimum = 7
	maximum = 47
Slowest flit = 970
Fragmentation average = 0
	minimum = 0
	maximum = 0
Injected packet rate average = 0.009375
	minimum = 0.00466667 (at node 1)
	maximum = 0.0133333 (at node 4)
Accepted packet rate average = 0.00958333
	minimum = 0 (at node 0)
	maximum = 0.153333 (at node 11)
Injected flit rate average = 0.009375
	minimum = 0.00466667 (at node 1)
	maximum = 0.0133333 (at node 4)
Accepted flit rate average= 0.00958333
	minimum = 0 (at node 0)
	maximum = 0.153333 (at node 11)
Injected packet length average = 1
Accepted packet length average = 1
Total in-flight flits = 3 (3 measured)
latency change    = 0.040696
throughput change = 0.0152174
Class 0:
Packet latency average = 19.6933
	minimum = 7
	maximum = 55
Network latency average = 19.6933
	minimum = 7
	maximum = 55
Slowest packet = 1216
Flit latency average = 19.9595
	minimum = 7
	maximum = 55
Slowest flit = 1216
Fragmentation average = 0
	minimum = 0
	maximum = 0
Injected packet rate average = 0.009875
	minimum = 0.0055 (at node 1)
	maximum = 0.013 (at node 4)
Accepted packet rate average = 0.0100313
	minimum = 0 (at node 0)
	maximum = 0.1605 (at node 11)
Injected flit rate average = 0.009875
	minimum = 0.0055 (at node 1)
	maximum = 0.013 (at node 4)
Accepted flit rate average= 0.0100313
	minimum = 0 (at node 0)
	maximum = 0.1605 (at node 11)
Injected packet length average = 1
Accepted packet length average = 1
Total in-flight flits = 3 (3 measured)
latency change    = 0.0253689
throughput change = 0.0446521
Draining all recorded packets ...
Draining remaining packets ...
Time taken is 3545 cycles
Class 0:
Packet latency average = 21.1765
	minimum = 7
	maximum = 69
Network latency average = 21.1765
	minimum = 7
	maximum = 69
Slowest packet = 1367
Flit latency average = 21.1765
	minimum = 7
	maximum = 69
Slowest flit = 1367
Fragmentation average = 0
	minimum = 0
	maximum = 0
Injected packet rate average = 0.01125
	minimum = 0.004 (at node 5)
	maximum = 0.02 (at node 7)
Accepted packet rate average = 0.010625
	minimum = 0 (at node 0)
	maximum = 0.17 (at node 11)
Injected flit rate average = 0.01125
	minimum = 0.004 (at node 5)
	maximum = 0.02 (at node 7)
Accepted flit rate average= 0.010625
	minimum = 0 (at node 0)
	maximum = 0.17 (at node 11)
Injected packet length average = 1
Accepted packet length average = 1
Total in-flight flits = 5 (0 measured)
latency change    = 1
throughput change = 1
Class 0:
Packet latency average = 20.4563
	minimum = 7
	maximum = 69
Network latency average = 20.4563
	minimum = 7
	maximum = 69
Slowest packet = 1367
Flit latency average = 20.4563
	minimum = 7
	maximum = 69
Slowest flit = 1367
Fragmentation average = 0
	minimum = 0
	maximum = 0
Injected packet rate average = 0.010125
	minimum = 0.007 (at node 5)
	maximum = 0.013 (at node 7)
Accepted packet rate average = 0.01
	minimum = 0 (at node 0)
	maximum = 0.16 (at node 11)
Injected flit rate average = 0.010125
	minimum = 0.007 (at node 5)
	maximum = 0.013 (at node 7)
Accepted flit rate average= 0.01
	minimum = 0 (at node 0)
	maximum = 0.16 (at node 11)
Injected packet length average = 1
Accepted packet length average = 1
Total in-flight flits = 2 (0 measured)
latency change    = 0.0352079
throughput change = 0.0625
Class 0:
Packet latency average = 21.8286
	minimum = 7
	maximum = 38
Network latency average = 21.8286
	minimum = 7
	maximum = 38
Slowest packet = 1521
Flit latency average = 21.8286
	minimum = 7
	maximum = 38
Slowest flit = 1521
Fragmentation average = 0
	minimum = 0
	maximum = 0
Injected packet rate average = 0.00925
	minimum = 0.002 (at node 15)
	maximum = 0.018 (at node 14)
Accepted packet rate average = 0.00875
	minimum = 0 (at node 0)
	maximum = 0.14 (at node 11)
Injected flit rate average = 0.00925
	minimum = 0.002 (at node 15)
	maximum = 0.018 (at node 14)
Accepted flit rate average= 0.00875
	minimum = 0 (at node 0)
	maximum = 0.14 (at node 11)
Injected packet length average = 1
Accepted packet length average = 1
Total in-flight flits = 6 (0 measured)
latency change    = 0.0628681
throughput change = 0.142857
Warmed up ...Time used is 1500 cycles
Class 0:
Packet latency average = 20.0581
	minimum = 7
	maximum = 35
Network latency average = 20.0581
	minimum = 7
	maximum = 35
Slowest packet = 1537
Flit latency average = 20.0761
	minimum = 7
	maximum = 35
Slowest flit = 1537
Fragmentation average = 0
	minimum = 0
	maximum = 0
Injected packet rate average = 0.011
	minimum = 0.004 (at node 11)
	maximum = 0.02 (at node 2)
Accepted packet rate average = 0.0115
	minimum = 0 (at node 0)
	maximum = 0.184 (at node 11)
Injected flit rate average = 0.011
	minimum = 0.004 (at node 11)
	maximum = 0.02 (at node 2)
Accepted flit rate average= 0.0115
	minimum = 0 (at node 0)
	maximum = 0.184 (at node 11)
Injected packet length average = 1
Accepted packet length average = 1
Total in-flight flits = 2 (2 measured)
latency change    = 0.088265
throughput change = 0.23913
Class 0:
Packet latency average = 20.1059
	minimum = 7
	maximum = 47
Network latency average = 20.1059
	minimum = 7
	maximum = 47
Slowest packet = 1646
Flit latency average = 20.1136
	minimum = 7
	maximum = 47
Slowest flit = 1646
Fragmentation average = 0
	minimum = 0
	maximum = 0
Injected packet rate average = 0.010875
	minimum = 0.006 (at node 8)
	maximum = 0.018 (at node 6)
Accepted packet rate average = 0.011
	minimum = 0 (at node 0)
	maximum = 0.176 (at node 11)
Injected flit rate average = 0.010875
	minimum = 0.006 (at node 8)
	maximum = 0.018 (at node 6)
Accepted flit rate average= 0.011
	minimum = 0 (at node 0)
	maximum = 0.176 (at node 11)
Injected packet length average = 1
Accepted packet length average = 1
Total in-flight flits = 4 (4 measured)
latency change    = 0.00237457
throughput change = 0.0454545
Class 0:
Packet latency average = 19.9076
	minimum = 7
	maximum = 47
Network latency average = 19.9076
	minimum = 7
	maximum = 47
Slowest packet = 1646
Flit latency average = 19.918
	minimum = 7
	maximum = 47
Slowest flit = 1646
Fragmentation average = 0
	minimum = 0
	maximum = 0
Injected packet rate average = 0.010125
	minimum = 0.00533333 (at node 0)
	maximum = 0.0166667 (at node 6)
Accepted packet rate average = 0.0101667
	minimum = 0 (at node 0)
	maximum = 0.162667 (at node 11)
Injected flit rate average = 0.010125
	minimum = 0.00533333 (at node 0)
	maximum = 0.0166667 (at node 6)
Accepted flit rate average= 0.0101667
	minimum = 0 (at node 0)
	maximum = 0.162667 (at node 11)
Injected packet length average = 1
Accepted packet length average = 1
Total in-flight flits = 5 (5 measured)
latency change    = 0.00996201
throughput change = 0.0819672
Class 0:
Packet latency average = 20.129
	minimum = 7
	maximum = 47
Network latency average = 20.129
	minimum = 7
	maximum = 47
Slowest packet = 1646
Flit latency average = 20.1329
	minimum = 7
	maximum = 47
Slowest flit = 1646
Fragmentation average = 0
	minimum = 0
	maximum = 0
Injected packet rate average = 0.00978125
	minimum = 0.0065 (at node 0)
	maximum = 0.0145 (at node 6)
Accepted packet rate average = 0.009875
	minimum = 0 (at node 0)
	maximum = 0.158 (at node 11)
Injected flit rate average = 0.00978125
	minimum = 0.0065 (at node 0)
	maximum = 0.0145 (at node 6)
Accepted flit rate average= 0.009875
	minimum = 0 (at node 0)
	maximum = 0.158 (at node 11)
Injected packet length average = 1
Accepted packet length average = 1
Total in-flight flits = 3 (3 measured)
latency change    = 0.0110025
throughput change = 0.0295359
Class 0:
Packet latency average = 20.0695
	minimum = 7
	maximum = 47
Network latency average = 20.0695
	minimum = 7
	maximum = 47
Slowest packet = 1646
Flit latency average = 20.0737
	minimum = 7
	maximum = 47
Slowest flit = 1646
Fragmentation average = 0
	minimum = 0
	maximum = 0
Injected packet rate average = 0.00945
	minimum = 0.006 (at node 0)
	maximum = 0.014 (at node 9)
Accepted packet rate average = 0.0095
	minimum = 0 (at node 0)
	maximum = 0.152 (at node 11)
Injected flit rate average = 0.00945
	minimum = 0.006 (at node 0)
	maximum = 0.014 (at node 9)
Accepted flit rate average= 0.0095
	minimum = 0 (at node 0)
	maximum = 0.152 (at node 11)
Injected packet length average = 1
Accepted packet length average = 1
Total in-flight flits = 4 (4 measured)
latency change    = 0.00296537
throughput change = 0.0394737
Class 0:
Packet latency average = 20.0899
	minimum = 7
	maximum = 47
Network latency average = 20.0899
	minimum = 7
	maximum = 47
Slowest packet = 1646
Flit latency average = 20.0931
	minimum = 7
	maximum = 47
Slowest flit = 1646
Fragmentation average = 0
	minimum = 0
	maximum = 0
Injected packet rate average = 0.00933333
	minimum = 0.005 (at node 0)
	maximum = 0.013 (at node 9)
Accepted packet rate average = 0.00939583
	minimum = 0 (at node 0)
	maximum = 0.150333 (at node 11)
Injected flit rate average = 0.00933333
	minimum = 0.005 (at node 0)
	maximum = 0.013 (at node 9)
Accepted flit rate average= 0.00939583
	minimum = 0 (at node 0)
	maximum = 0.150333 (at node 11)
Injected packet length average = 1
Accepted packet length average = 1
Total in-flight flits = 3 (3 measured)
latency change    = 0.00101389
throughput change = 0.0110865
Draining all recorded packets ...
Draining remaining packets ...
Time taken is 4551 cycles
Class 0:
Packet latency average = 19.2727
	minimum = 7
	maximum = 36
Network latency average = 19.2727
	minimum = 7
	maximum = 36
Slowest packet = 2059
Flit latency average = 19.2727
	minimum = 7
	maximum = 36
Slowest flit = 2059
Fragmentation average = 0
	minimum = 0
	maximum = 0
Injected packet rate average = 0.011375
	minimum = 0.004 (at node 9)
	maximum = 0.022 (at node 7)
Accepted packet rate average = 0.011
	minimum = 0 (at node 0)
	maximum = 0.176 (at node 11)
Injected flit rate average = 0.011375
	minimum = 0.004 (at node 9)
	maximum = 0.022 (at node 7)
Accepted flit rate average= 0.011
	minimum = 0 (at node 0)
	maximum = 0.176 (at node 11)
Injected packet length average = 1
Accepted packet length average = 1
Total in-flight flits = 3 (0 measured)
latency change    = 1
throughput change = 1
Class 0:
Packet latency average = 19.675
	minimum = 7
	maximum = 36
Network latency average = 19.675
	minimum = 7
	maximum = 36
Slowest packet = 2059
Flit latency average = 19.675
	minimum = 7
	maximum = 36
Slowest flit = 2059
Fragmentation average = 0
	minimum = 0
	maximum = 0
Injected packet rate average = 0.0100625
	minimum = 0.005 (at node 14)
	maximum = 0.014 (at node 7)
Accepted packet rate average = 0.01
	minimum = 0 (at node 0)
	maximum = 0.16 (at node 11)
Injected flit rate average = 0.0100625
	minimum = 0.005 (at node 14)
	maximum = 0.014 (at node 7)
Accepted flit rate average= 0.01
	minimum = 0 (at node 0)
	maximum = 0.16 (at node 11)
Injected packet length average = 1
Accepted packet length average = 1
Total in-flight flits = 1 (0 measured)
latency change    = 0.0204459
throughput change = 0.1
Class 0:
Packet latency average = 20.2807
	minimum = 7
	maximum = 42
Network latency average = 20.2807
	minimum = 7
	maximum = 42
Slowest packet = 2187
Flit latency average = 20.2807
	minimum = 7
	maximum = 42
Slowest flit = 2187
Fragmentation average = 0
	minimum = 0
	maximum = 0
Injected packet rate average = 0.00725
	minimum = 0 (at node 10)
	maximum = 0.014 (at node 13)
Accepted packet rate average = 0.007125
	minimum = 0 (at node 0)
	maximum = 0.114 (at node 11)
Injected flit rate average = 0.00725
	minimum = 0 (at node 10)
	maximum = 0.014 (at node 13)
Accepted flit rate average= 0.007125
	minimum = 0 (at node 0)
	maximum = 0.114 (at node 11)
Injected packet length average = 1
Accepted packet length average = 1
Total in-flight flits = 2 (0 measured)
latency change    = 0.0298659
throughput change = 0.403509
Warmed up ...Time used is 1500 cycles
Class 0:
Packet latency average = 20.0694
	minimum = 7
	maximum = 34
Network latency average = 20.0694
	minimum = 7
	maximum = 34
Slowest packet = 2237
Flit latency average = 20.3243
	minimum = 7
	maximum = 34
Slowest flit = 2237
Fragmentation average = 0
	minimum = 0
	maximum = 0
Injected packet rate average = 0.0095
	minimum = 0.002 (at node 12)
	maximum = 0.018 (at node 6)
Accepted packet rate average = 0.00925
	minimum = 0 (at node 0)
	maximum = 0.148 (at node 11)
Injected flit rate average = 0.0095
	minimum = 0.002 (at node 12)
	maximum = 0.018 (at node 6)
Accepted flit rate average= 0.00925
	minimum = 0 (at node 0)
	maximum = 0.148 (at node 11)
Injected packet length average = 1
Accepted packet length average = 1
Total in-flight flits = 4 (4 measured)
latency change    = 0.0105263
throughput change = 0.22973
Class 0:
Packet latency average = 20.18
	minimum = 7
	maximum = 41
Network latency average = 20.18
	minimum = 7
	maximum = 41
Slowest packet = 2294
Flit latency average = 20.3026
	minimum = 7
	maximum = 41
Slowest flit = 2294
Fragmentation average = 0
	minimum = 0
	maximum = 0
Injected packet rate average = 0.009625
	minimum = 0.006 (at node 3)
	maximum = 0.014 (at node 6)
Accepted packet rate average = 0.0095
	minimum = 0 (at node 0)
	maximum = 0.152 (at node 11)
Injected flit rate average = 0.009625
	minimum = 0.006 (at node 3)
	maximum = 0.014 (at node 6)
Accepted flit rate average= 0.0095
	minimum = 0 (at node 0)
	maximum = 0.152 (at node 11)
Injected packet length average = 1
Accepted packet length average = 1
Total in-flight flits = 4 (4 measured)
latency change    = 0.00547847
throughput change = 0.0263158
Class 0:
Packet latency average = 20.2489
	minimum = 7
	maximum = 41
Network latency average = 20.2489
	minimum = 7
	maximum = 41
Slowest packet = 2294
Flit latency average = 20.3277
	minimum = 7
	maximum = 41
Slowest flit = 2294
Fragmentation average = 0
	minimum = 0
	maximum = 0
Injected packet rate average = 0.00983333
	minimum = 0.00666667 (at node 2)
	maximum = 0.0133333 (at node 10)
Accepted packet rate average = 0.00979167
	minimum = 0 (at node 0)
	maximum = 0.156667 (at node 11)
Injected flit rate average = 0.00983333
	minimum = 0.00666667 (at node 2)
	maximum = 0.0133333 (at node 10)
Accepted flit rate average= 0.00979167
	minimum = 0 (at node 0)
	maximum = 0.156667 (at node 11)
Injected packet length average = 1
Accepted packet length average = 1
Total in-flight flits = 3 (3 measured)
latency change    = 0.00340398
throughput change = 0.0297872
Class 0:
Packet latency average = 20.2143
	minimum = 7
	maximum = 41
Network latency average = 20.2143
	minimum = 7
	maximum = 41
Slowest packet = 2294
Flit latency average = 20.2742
	minimum = 7
	maximum = 41
Slowest flit = 2294
Fragmentation average = 0
	minimum = 0
	maximum = 0
Injected packet rate average = 0.00971875
	minimum = 0.0075 (at node 11)
	maximum = 0.012 (at node 10)
Accepted packet rate average = 0.0096875
	minimum = 0 (at node 0)
	maximum = 0.155 (at node 11)
Injected flit rate average = 0.00971875
	minimum = 0.0075 (at node 11)
	maximum = 0.012 (at node 10)
Accepted flit rate average= 0.0096875
	minimum = 0 (at node 0)
	maximum = 0.155 (at node 11)
Injected packet length average = 1
Accepted packet length average = 1
Total in-flight flits = 3 (3 measured)
latency change    = 0.00171371
throughput change = 0.0107527
Draining all recorded packets ...
Draining remaining packets ...
Time taken is 3512 cycles
Class 0:
Packet latency average = 18.2917
	minimum = 7
	maximum = 32
Network latency average = 18.2917
	minimum = 7
	maximum = 32
Slowest packet = 2563
Flit latency average = 18.2917
	minimum = 7
	maximum = 32
Slowest flit = 2563
Fragmentation average = 0
	minimum = 0
	maximum = 0
Injected packet rate average = 0.00925
	minimum = 0.004 (at node 0)
	maximum = 0.016 (at node 15)
Accepted packet rate average = 0.009
	minimum = 0 (at node 0)
	maximum = 0.144 (at node 11)
Injected flit rate average = 0.00925
	minimum = 0.004 (at node 0)
	maximum = 0.016 (at node 15)
Accepted flit rate average= 0.009
	minimum = 0 (at node 0)
	maximum = 0.144 (at node 11)
Injected packet length average = 1
Accepted packet length average = 1
Total in-flight flits = 2 (0 measured)
latency change    = 1
throughput change = 1
Class 0:
Packet latency average = 19.5488
	minimum = 7
	maximum = 42
Network latency average = 19.5488
	minimum = 7
	maximum = 42
Slowest packet = 2661
Flit latency average = 19.5488
	minimum = 7
	maximum = 42
Slowest flit = 2661
Fragmentation average = 0
	minimum = 0
	maximum = 0
Injected packet rate average = 0.0104375
	minimum = 0.006 (at node 3)
	maximum = 0.016 (at node 9)
Accepted packet rate average = 0.01025
	minimum = 0 (at node 0)
	maximum = 0.164 (at node 11)
Injected flit rate average = 0.0104375
	minimum = 0.006 (at node 3)
	maximum = 0.016 (at node 9)
Accepted flit rate average= 0.01025
	minimum = 0 (at node 0)
	maximum = 0.164 (at node 11)
Injected packet length average = 1
Accepted packet length average = 1
Total in-flight flits = 3 (0 measured)
latency change    = 0.0643065
throughput change = 0.121951
Class 0:
Packet latency average = 19.9296
	minimum = 7
	maximum = 32
Network latency average = 19.9296
	minimum = 7
	maximum = 32
Slowest packet = 2679
Flit latency average = 19.9296
	minimum = 7
	maximum = 32
Slowest flit = 2679
Fragmentation average = 0
	minimum = 0
	maximum = 0
Injected packet rate average = 0.0085
	minimum = 0.002 (at node 5)
	maximum = 0.012 (at node 0)
Accepted packet rate average = 0.008875
	minimum = 0 (at node 0)
	maximum = 0.142 (at node 11)
Injected flit rate average = 0.0085
	minimum = 0.002 (at node 5)
	maximum = 0.012 (at node 0)
Accepted flit rate average= 0.008875
	minimum = 0 (at node 0)
	maximum = 0.142 (at node 11)
Injected packet length average = 1
Accepted packet length average = 1
Total in-flight flits = 0 (0 measured)
latency change    = 0.0191071
throughput change = 0.15493
Warmed up ...Time used is 1500 cycles
Class 0:
Packet latency average = 18.8214
	minimum = 7
	maximum = 36
Network latency average = 18.8214
	minimum = 7
	maximum = 36
Slowest packet = 2752
Flit latency average = 18.8214
	minimum = 7
	maximum = 36
Slowest flit = 2752
Fragmentation average = 0
	minimum = 0
	maximum = 0
Injected packet rate average = 0.011
	minimum = 0.004 (at node 8)
	maximum = 0.022 (at node 10)
Accepted packet rate average = 0.0105
	minimum = 0 (at node 0)
	maximum = 0.168 (at node 11)
Injected flit rate average = 0.011
	minimum = 0.004 (at node 8)
	maximum = 0.022 (at node 10)
Accepted flit rate average= 0.0105
	minimum = 0 (at node 0)
	maximum = 0.168 (at node 11)
Injected packet length average = 1
Accepted packet length average = 1
Total in-flight flits = 4 (4 measured)
latency change    = 0.058877
throughput change = 0.154762
Class 0:
Packet latency average = 19.3585
	minimum = 7
	maximum = 41
Network latency average = 19.3585
	minimum = 7
	maximum = 41
Slowest packet = 2896
Flit latency average = 19.3585
	minimum = 7
	maximum = 41
Slowest flit = 2896
Fragmentation average = 0
	minimum = 0
	maximum = 0
Injected packet rate average = 0.010125
	minimum = 0.005 (at node 8)
	maximum = 0.016 (at node 14)
Accepted packet rate average = 0.0099375
	minimum = 0 (at node 0)
	maximum = 0.159 (at node 11)
Injected flit rate average = 0.010125
	minimum = 0.005 (at node 8)
	maximum = 0.016 (at node 14)
Accepted flit rate average= 0.0099375
	minimum = 0 (at node 0)
	maximum = 0.159 (at node 11)
Injected packet length average = 1
Accepted packet length average = 1
Total in-flight flits = 3 (3 measured)
latency change    = 0.027743
throughput change = 0.0566038
Class 0:
Packet latency average = 20.0837
	minimum = 7
	maximum = 45
Network latency average = 20.0837
	minimum = 7
	maximum = 45
Slowest packet = 2941
Flit latency average = 20.0837
	minimum = 7
	maximum = 45
Slowest flit = 2941
Fragmentation average = 0
	minimum = 0
	maximum = 0
Injected packet rate average = 0.0105417
	minimum = 0.006 (at node 1)
	maximum = 0.0146667 (at node 7)
Accepted packet rate average = 0.0104583
	minimum = 0 (at node 0)
	maximum = 0.167333 (at node 11)
Injected flit rate average = 0.0105417
	minimum = 0.006 (at node 1)
	maximum = 0.0146667 (at node 7)
Accepted flit rate average= 0.0104583
	minimum = 0 (at node 0)
	maximum = 0.167333 (at node 11)
Injected packet length average = 1
Accepted packet length average = 1
Total in-flight flits = 2 (2 measured)
latency change    = 0.0361077
throughput change = 0.0498008
Class 0:
Packet latency average = 20.1198
	minimum = 7
	maximum = 45
Network latency average = 20.1198
	minimum = 7
	maximum = 45
Slowest packet = 2941
Flit latency average = 20.1198
	minimum = 7
	maximum = 45
Slowest flit = 2941
Fragmentation average = 0
	minimum = 0
	maximum = 0
Injected packet rate average = 0.0105313
	minimum = 0.007 (at node 8)
	maximum = 0.015 (at node 7)
Accepted packet rate average = 0.0104375
	minimum = 0 (at node 0)
	maximum = 0.167 (at node 11)
Injected flit rate average = 0.0105313
	minimum = 0.007 (at node 8)
	maximum = 0.015 (at node 7)
Accepted flit rate average= 0.0104375
	minimum = 0 (at node 0)
	maximum = 0.167 (at node 11)
Injected packet length average = 1
Accepted packet length average = 1
Total in-flight flits = 3 (3 measured)
latency change    = 0.00179401
throughput change = 0.00199601
Class 0:
Packet latency average = 19.93
	minimum = 7
	maximum = 45
Network latency average = 19.93
	minimum = 7
	maximum = 45
Slowest packet = 2941
Flit latency average = 19.93
	minimum = 7
	maximum = 45
Slowest flit = 2941
Fragmentation average = 0
	minimum = 0
	maximum = 0
Injected packet rate average = 0.010375
	minimum = 0.0068 (at node 3)
	maximum = 0.0144 (at node 4)
Accepted packet rate average = 0.01035
	minimum = 0 (at node 0)
	maximum = 0.1656 (at node 11)
Injected flit rate average = 0.010375
	minimum = 0.0068 (at node 3)
	maximum = 0.0144 (at node 4)
Accepted flit rate average= 0.01035
	minimum = 0 (at node 0)
	maximum = 0.1656 (at node 11)
Injected packet length average = 1
Accepted packet length average = 1
Total in-flight flits = 1 (1 measured)
latency change    = 0.0095238
throughput change = 0.00845411
Draining all recorded packets ...
Draining remaining packets ...
Time taken is 4032 cycles
Class 0:
Packet latency average = 19.2468
	minimum = 7
	maximum = 35
Network latency average = 19.2468
	minimum = 7
	maximum = 35
Slowest packet = 3211
Flit latency average = 19.2468
	minimum = 7
	maximum = 35
Slowest flit = 3211
Fragmentation average = 0
	minimum = 0
	maximum = 0
Injected packet rate average = 0.0105
	minimum = 0 (at node 0)
	maximum = 0.018 (at node 5)
Accepted packet rate average = 0.009625
	minimum = 0 (at node 0)
	maximum = 0.154 (at node 11)
Injected flit rate average = 0.0105
	minimum = 0 (at node 0)
	maximum = 0.018 (at node 5)
Accepted flit rate average= 0.009625
	minimum = 0 (at node 0)
	maximum = 0.154 (at node 11)
Injected packet length average = 1
Accepted packet length average = 1
Total in-flight flits = 7 (0 measured)
latency change    = 1
throughput change = 1
Class 0:
Packet latency average = 19.1959
	minimum = 7
	maximum = 35
Network latency average = 19.1959
	minimum = 7
	maximum = 35
Slowest packet = 3211
Flit latency average = 19.1959
	minimum = 7
	maximum = 35
Slowest flit = 3211
Fragmentation average = 0
	minimum = 0
	maximum = 0
Injected packet rate average = 0.0095
	minimum = 0.003 (at node 0)
	maximum = 0.013 (at node 5)
Accepted packet rate average = 0.00925
	minimum = 0 (at node 0)
	maximum = 0.148 (at node 11)
Injected flit rate average = 0.0095
	minimum = 0.003 (at node 0)
	maximum = 0.013 (at node 5)
Accepted flit rate average= 0.00925
	minimum = 0 (at node 0)
	maximum = 0.148 (at node 11)
Injected packet length average = 1
Accepted packet length average = 1
Total in-flight flits = 4 (0 measured)
latency change    = 0.00264677
throughput change = 0.0405405
Class 0:
Packet latency average = 19.7037
	minimum = 7
	maximum = 39
Network latency average = 19.7037
	minimum = 7
	maximum = 39
Slowest packet = 3347
Flit latency average = 19.7037
	minimum = 7
	maximum = 39
Slowest flit = 3347
Fragmentation average = 0
	minimum = 0
	maximum = 0
Injected packet rate average = 0.0105
	minimum = 0.004 (at node 6)
	maximum = 0.024 (at node 13)
Accepted packet rate average = 0.010125
	minimum = 0 (at node 0)
	maximum = 0.162 (at node 11)
Injected flit rate average = 0.0105
	minimum = 0.004 (at node 6)
	maximum = 0.024 (at node 13)
Accepted flit rate average= 0.010125
	minimum = 0 (at node 0)
	maximum = 0.162 (at node 11)
Injected packet length average = 1
Accepted packet length average = 1
Total in-flight flits = 7 (0 measured)
latency change    = 0.0257697
throughput change = 0.0864198
Warmed up ...Time used is 1500 cycles
Class 0:
Packet latency average = 22.0899
	minimum = 7
	maximum = 46
Network latency average = 22.0899
	minimum = 7
	maximum = 46
Slowest packet = 3409
Flit latency average = 22.6875
	minimum = 7
	maximum = 46
Slowest flit = 3409
Fragmentation average = 0
	minimum = 0
	maximum = 0
Injected packet rate average = 0.01175
	minimum = 0.004 (at node 10)
	maximum = 0.018 (at node 13)
Accepted packet rate average = 0.012
	minimum = 0 (at node 0)
	maximum = 0.192 (at node 11)
Injected flit rate average = 0.01175
	minimum = 0.004 (at node 10)
	maximum = 0.018 (at node 13)
Accepted flit rate average= 0.012
	minimum = 0 (at node 0)
	maximum = 0.192 (at node 11)
Injected packet length average = 1
Accepted packet length average = 1
Total in-flight flits = 5 (5 measured)
latency change    = 0.108022
throughput change = 0.15625
Class 0:
Packet latency average = 21.4251
	minimum = 7
	maximum = 46
Network latency average = 21.4251
	minimum = 7
	maximum = 46
Slowest packet = 3409
Flit latency average = 21.7816
	minimum = 7
	maximum = 46
Slowest flit = 3409
Fragmentation average = 0
	minimum = 0
	maximum = 0
Injected packet rate average = 0.0106875
	minimum = 0.007 (at node 15)
	maximum = 0.015 (at node 1)
Accepted packet rate average = 0.010875
	minimum = 0 (at node 0)
	maximum = 0.174 (at node 11)
Injected flit rate average = 0.0106875
	minimum = 0.007 (at node 15)
	maximum = 0.015 (at node 1)
Accepted flit rate average= 0.010875
	minimum = 0 (at node 0)
	maximum = 0.174 (at node 11)
Injected packet length average = 1
Accepted packet length average = 1
Total in-flight flits = 4 (4 measured)
latency change    = 0.0310261
throughput change = 0.103448
Class 0:
Packet latency average = 21.1152
	minimum = 7
	maximum = 46
Network latency average = 21.1152
	minimum = 7
	maximum = 46
Slowest packet = 3409
Flit latency average = 21.372
	minimum = 7
	maximum = 46
Slowest flit = 3409
Fragmentation average = 0
	minimum = 0
	maximum = 0
Injected packet rate average = 0.01025
	minimum = 0.00666667 (at node 7)
	maximum = 0.014 (at node 1)
Accepted packet rate average = 0.0104167
	minimum = 0 (at node 0)
	maximum = 0.166667 (at node 11)
Injected flit rate average = 0.01025
	minimum = 0.00666667 (at node 7)
	maximum = 0.014 (at node 1)
Accepted flit rate average= 0.0104167
	minimum = 0 (at node 0)
	maximum = 0.166667 (at node 11)
Injected packet length average = 1
Accepted packet length average = 1
Total in-flight flits = 3 (3 measured)
latency change    = 0.0146777
throughput change = 0.044
Class 0:
Packet latency average = 20.6166
	minimum = 7
	maximum = 46
Network latency average = 20.6166
	minimum = 7
	maximum = 46
Slowest packet = 3409
Flit latency average = 20.8198
	minimum = 7
	maximum = 46
Slowest flit = 3409
Fragmentation average = 0
	minimum = 0
	maximum = 0
Injected packet rate average = 0.0103438
	minimum = 0.0085 (at node 14)
	maximum = 0.0125 (at node 1)
Accepted packet rate average = 0.0104063
	minimum = 0 (at node 0)
	maximum = 0.1665 (at node 11)
Injected flit rate average = 0.0103438
	minimum = 0.0085 (at node 14)
	maximum = 0.0125 (at node 1)
Accepted flit rate average= 0.0104063
	minimum = 0 (at node 0)
	maximum = 0.1665 (at node 11)
Injected packet length average = 1
Accepted packet length average = 1
Total in-flight flits = 5 (5 measured)
latency change    = 0.0241874
throughput change = 0.001001
Class 0:
Packet latency average = 20.6348
	minimum = 7
	maximum = 46
Network latency average = 20.6348
	minimum = 7
	maximum = 46
Slowest packet = 3409
Flit latency average = 20.7976
	minimum = 7
	maximum = 46
Slowest flit = 3409
Fragmentation average = 0
	minimum = 0
	maximum = 0
Injected packet rate average = 0.0103
	minimum = 0.0084 (at node 9)
	maximum = 0.0128 (at node 1)
Accepted packet rate average = 0.010375
	minimum = 0 (at node 0)
	maximum = 0.166 (at node 11)
Injected flit rate average = 0.0103
	minimum = 0.0084 (at node 9)
	maximum = 0.0128 (at node 1)
Accepted flit rate average= 0.010375
	minimum = 0 (at node 0)
	maximum = 0.166 (at node 11)
Injected packet length average = 1
Accepted packet length average = 1
Total in-flight flits = 4 (4 measured)
latency change    = 0.000883919
throughput change = 0.00301205
Draining all recorded packets ...
Draining remaining packets ...
Time taken is 4028 cycles
Class 0:
Packet latency average = 19.7778
	minimum = 7
	maximum = 35
Network latency average = 19.7778
	minimum = 7
	maximum = 35
Slowest packet = 3838
Flit latency average = 19.7778
	minimum = 7
	maximum = 35
Slowest flit = 3838
Fragmentation average = 0
	minimum = 0
	maximum = 0
Injected packet rate average = 0.0095
	minimum = 0.002 (at node 9)
	maximum = 0.016 (at node 1)
Accepted packet rate average = 0.009
	minimum = 0 (at node 0)
	maximum = 0.144 (at node 11)
Injected flit rate average = 0.0095
	minimum = 0.002 (at node 9)
	maximum = 0.016 (at node 1)
Accepted flit rate average= 0.009
	minimum = 0 (at node 0)
	maximum = 0.144 (at node 11)
Injected packet length average = 1
Accepted packet length average = 1
Total in-flight flits = 4 (0 measured)
latency change    = 1
throughput change = 1
Class 0:
Packet latency average = 20.5944
	minimum = 7
	maximum = 40
Network latency average = 20.5944
	minimum = 7
	maximum = 40
Slowest packet = 3947
Flit latency average = 20.5944
	minimum = 7
	maximum = 40
Slowest flit = 3947
Fragmentation average = 0
	minimum = 0
	maximum = 0
Injected packet rate average = 0.009125
	minimum = 0.006 (at node 8)
	maximum = 0.014 (at node 5)
Accepted packet rate average = 0.0089375
	minimum = 0 (at node 0)
	maximum = 0.143 (at node 11)
Injected flit rate average = 0.009125
	minimum = 0.006 (at node 8)
	maximum = 0.014 (at node 5)
Accepted flit rate average= 0.0089375
	minimum = 0 (at node 0)
	maximum = 0.143 (at node 11)
Injected packet length average = 1
Accepted packet length average = 1
Total in-flight flits = 3 (0 measured)
latency change    = 0.0396529
throughput change = 0.00699301
Class 0:
Packet latency average = 19.7246
	minimum = 7
	maximum = 33
Network latency average = 19.7246
	minimum = 7
	maximum = 33
Slowest packet = 3963
Flit latency average = 19.7246
	minimum = 7
	maximum = 33
Slowest flit = 3963
Fragmentation average = 0
	minimum = 0
	maximum = 0
Injected packet rate average = 0.008375
	minimum = 0.002 (at node 4)
	maximum = 0.016 (at node 10)
Accepted packet rate average = 0.008625
	minimum = 0 (at node 0)
	maximum = 0.138 (at node 11)
Injected flit rate average = 0.008375
	minimum = 0.002 (at node 4)
	maximum = 0.016 (at node 10)
Accepted flit rate average= 0.008625
	minimum = 0 (at node 0)
	maximum = 0.138 (at node 11)
Injected packet length average = 1
Accepted packet length average = 1
Total in-flight flits = 1 (0 measured)
latency change    = 0.0440955
throughput change = 0.0362319
Warmed up ...Time used is 1500 cycles
Class 0:
Packet latency average = 19.141
	minimum = 7
	maximum = 33
Network latency average = 19.141
	minimum = 7
	maximum = 33
Slowest packet = 4106
Flit latency average = 19.2405
	minimum = 7
	maximum = 33
Slowest flit = 4106
Fragmentation average = 0
	minimum = 0
	maximum = 0
Injected packet rate average = 0.01025
	minimum = 0.004 (at node 0)
	maximum = 0.018 (at node 10)
Accepted packet rate average = 0.009875
	minimum = 0 (at node 0)
	maximum = 0.158 (at node 11)
Injected flit rate average = 0.01025
	minimum = 0.004 (at node 0)
	maximum = 0.018 (at node 10)
Accepted flit rate average= 0.009875
	minimum = 0 (at node 0)
	maximum = 0.158 (at node 11)
Injected packet length average = 1
Accepted packet length average = 1
Total in-flight flits = 4 (4 measured)
latency change    = 0.0304901
throughput change = 0.126582
Class 0:
Packet latency average = 20.5723
	minimum = 7
	maximum = 44
Network latency average = 20.5723
	minimum = 7
	maximum = 44
Slowest packet = 4136
Flit latency average = 20.6092
	minimum = 7
	maximum = 44
Slowest flit = 4136
Fragmentation average = 0
	minimum = 0
	maximum = 0
Injected packet rate average = 0.011
	minimum = 0.007 (at node 15)
	maximum = 0.017 (at node 7)
Accepted packet rate average = 0.010875
	minimum = 0 (at node 0)
	maximum = 0.174 (at node 11)
Injected flit rate average = 0.011
	minimum = 0.007 (at node 15)
	maximum = 0.017 (at node 7)
Accepted flit rate average= 0.010875
	minimum = 0 (at node 0)
	maximum = 0.174 (at node 11)
Injected packet length average = 1
Accepted packet length average = 1
Total in-flight flits = 3 (3 measured)
latency change    = 0.0695708
throughput change = 0.091954
Class 0:
Packet latency average = 20.1057
	minimum = 7
	maximum = 44
Network latency average = 20.1057
	minimum = 7
	maximum = 44
Slowest packet = 4136
Flit latency average = 20.1316
	minimum = 7
	maximum = 44
Slowest flit = 4136
Fragmentation average = 0
	minimum = 0
	maximum = 0
Injected packet rate average = 0.011125
	minimum = 0.00666667 (at node 0)
	maximum = 0.0193333 (at node 7)
Accepted packet rate average = 0.0110833
	minimum = 0 (at node 0)
	maximum = 0.177333 (at node 11)
Injected flit rate average = 0.011125
	minimum = 0.00666667 (at node 0)
	maximum = 0.0193333 (at node 7)
Accepted flit rate average= 0.0110833
	minimum = 0 (at node 0)
	maximum = 0.177333 (at node 11)
Injected packet length average = 1
Accepted packet length average = 1
Total in-flight flits = 2 (2 measured)
latency change    = 0.0232071
throughput change = 0.018797
Class 0:
Packet latency average = 19.8655
	minimum = 7
	maximum = 44
Network latency average = 19.8655
	minimum = 7
	maximum = 44
Slowest packet = 4136
Flit latency average = 19.8855
	minimum = 7
	maximum = 44
Slowest flit = 4136
Fragmentation average = 0
	minimum = 0
	maximum = 0
Injected packet rate average = 0.0113125
	minimum = 0.008 (at node 0)
	maximum = 0.018 (at node 7)
Accepted packet rate average = 0.0111875
	minimum = 0 (at node 0)
	maximum = 0.179 (at node 11)
Injected flit rate average = 0.0113125
	minimum = 0.008 (at node 0)
	maximum = 0.018 (at node 7)
Accepted flit rate average= 0.0111875
	minimum = 0 (at node 0)
	maximum = 0.179 (at node 11)
Injected packet length average = 1
Accepted packet length average = 1
Total in-flight flits = 5 (5 measured)
latency change    = 0.012087
throughput change = 0.00931099
Class 0:
Packet latency average = 19.7682
	minimum = 7
	maximum = 44
Network latency average = 19.7682
	minimum = 7
	maximum = 44
Slowest packet = 4136
Flit latency average = 19.7846
	minimum = 7
	maximum = 44
Slowest flit = 4136
Fragmentation average = 0
	minimum = 0
	maximum = 0
Injected packet rate average = 0.011025
	minimum = 0.0068 (at node 0)
	maximum = 0.0172 (at node 7)
Accepted packet rate average = 0.011025
	minimum = 0 (at node 0)
	maximum = 0.1764 (at node 11)
Injected flit rate average = 0.011025
	minimum = 0.0068 (at node 0)
	maximum = 0.0172 (at node 7)
Accepted flit rate average= 0.011025
	minimum = 0 (at node 0)
	maximum = 0.1764 (at node 11)
Injected packet length average = 1
Accepted packet length average = 1
Total in-flight flits = 1 (1 measured)
latency change    = 0.00492531
throughput change = 0.0147392
Draining all recorded packets ...
Draining remaining packets ...
Time taken is 4015 cycles
Class 0:
Packet latency average = 19.2568
	minimum = 7
	maximum = 37
Network latency average = 19.2568
	minimum = 7
	maximum = 37
Slowest packet = 4507
Flit latency average = 19.2568
	minimum = 7
	maximum = 37
Slowest flit = 4507
Fragmentation average = 0
	minimum = 0
	maximum = 0
Injected packet rate average = 0.009375
	minimum = 0.004 (at node 5)
	maximum = 0.016 (at node 10)
Accepted packet rate average = 0.00925
	minimum = 0 (at node 0)
	maximum = 0.148 (at node 11)
Injected flit rate average = 0.009375
	minimum = 0.004 (at node 5)
	maximum = 0.016 (at node 10)
Accepted flit rate average= 0.00925
	minimum = 0 (at node 0)
	maximum = 0.148 (at node 11)
Injected packet length average = 1
Accepted packet length average = 1
Total in-flight flits = 1 (0 measured)
latency change    = 1
throughput change = 1
Class 0:
Packet latency average = 19.8067
	minimum = 7
	maximum = 37
Network latency average = 19.8067
	minimum = 7
	maximum = 37
Slowest packet = 4507
Flit latency average = 19.8067
	minimum = 7
	maximum = 37
Slowest flit = 4507
Fragmentation average = 0
	minimum = 0
	maximum = 0
Injected packet rate average = 0.009625
	minimum = 0.003 (at node 5)
	maximum = 0.016 (at node 9)
Accepted packet rate average = 0.009375
	minimum = 0 (at node 0)
	maximum = 0.15 (at node 11)
Injected flit rate average = 0.009625
	minimum = 0.003 (at node 5)
	maximum = 0.016 (at node 9)
Accepted flit rate average= 0.009375
	minimum = 0 (at node 0)
	maximum = 0.15 (at node 11)
Injected packet length average = 1
Accepted packet length average = 1
Total in-flight flits = 4 (0 measured)
latency change    = 0.0277639
throughput change = 0.0133333
Class 0:
Packet latency average = 19.5341
	minimum = 7
	maximum = 37
Network latency average = 19.5341
	minimum = 7
	maximum = 37
Slowest packet = 4686
Flit latency average = 19.5341
	minimum = 7
	maximum = 37
Slowest flit = 4686
Fragmentation average = 0
	minimum = 0
	maximum = 0
Injected packet rate average = 0.0105
	minimum = 0.002 (at node 9)
	maximum = 0.022 (at node 6)
Accepted packet rate average = 0.011
	minimum = 0 (at node 0)
	maximum = 0.176 (at node 11)
Injected flit rate average = 0.0105
	minimum = 0.002 (at node 9)
	maximum = 0.022 (at node 6)
Accepted flit rate average= 0.011
	minimum = 0 (at node 0)
	maximum = 0.176 (at node 11)
Injected packet length average = 1
Accepted packet length average = 1
Total in-flight flits = 0 (0 measured)
latency change    = 0.0139538
throughput change = 0.147727
Warmed up ...Time used is 1500 cycles
Class 0:
Packet latency average = 20.5
	minimum = 7
	maximum = 33
Network latency average = 20.5
	minimum = 7
	maximum = 33
Slowest packet = 4713
Flit latency average = 20.5
	minimum = 7
	maximum = 33
Slowest flit = 4713
Fragmentation average = 0
	minimum = 0
	maximum = 0
Injected packet rate average = 0.010875
	minimum = 0.002 (at node 6)
	maximum = 0.016 (at node 3)
Accepted packet rate average = 0.01075
	minimum = 0 (at node 0)
	maximum = 0.172 (at node 11)
Injected flit rate average = 0.010875
	minimum = 0.002 (at node 6)
	maximum = 0.016 (at node 3)
Accepted flit rate average= 0.01075
	minimum = 0 (at node 0)
	maximum = 0.172 (at node 11)
Injected packet length average = 1
Accepted packet length average = 1
Total in-flight flits = 1 (1 measured)
latency change    = 0.0471175
throughput change = 0.0232558
Class 0:
Packet latency average = 20.7696
	minimum = 7
	maximum = 44
Network latency average = 20.7696
	minimum = 7
	maximum = 44
Slowest packet = 4886
Flit latency average = 20.7696
	minimum = 7
	maximum = 44
Slowest flit = 4886
Fragmentation average = 0
	minimum = 0
	maximum = 0
Injected packet rate average = 0.0124375
	minimum = 0.008 (at node 1)
	maximum = 0.018 (at node 8)
Accepted packet rate average = 0.0119375
	minimum = 0 (at node 0)
	maximum = 0.191 (at node 11)
Injected flit rate average = 0.0124375
	minimum = 0.008 (at node 1)
	maximum = 0.018 (at node 8)
Accepted flit rate average= 0.0119375
	minimum = 0 (at node 0)
	maximum = 0.191 (at node 11)
Injected packet length average = 1
Accepted packet length average = 1
Total in-flight flits = 8 (8 measured)
latency change    = 0.0129821
throughput change = 0.0994764
Class 0:
Packet latency average = 20.4667
	minimum = 7
	maximum = 44
Network latency average = 20.4667
	minimum = 7
	maximum = 44
Slowest packet = 4886
Flit latency average = 20.4667
	minimum = 7
	maximum = 44
Slowest flit = 4886
Fragmentation average = 0
	minimum = 0
	maximum = 0
Injected packet rate average = 0.0120417
	minimum = 0.00866667 (at node 1)
	maximum = 0.016 (at node 8)
Accepted packet rate average = 0.011875
	minimum = 0 (at node 0)
	maximum = 0.19 (at node 11)
Injected flit rate average = 0.0120417
	minimum = 0.00866667 (at node 1)
	maximum = 0.016 (at node 8)
Accepted flit rate average= 0.011875
	minimum = 0 (at node 0)
	maximum = 0.19 (at node 11)
Injected packet length average = 1
Accepted packet length average = 1
Total in-flight flits = 4 (4 measured)
latency change    = 0.0148029
throughput change = 0.00526316
Class 0:
Packet latency average = 20.079
	minimum = 7
	maximum = 44
Network latency average = 20.079
	minimum = 7
	maximum = 44
Slowest packet = 4886
Flit latency average = 20.079
	minimum = 7
	maximum = 44
Slowest flit = 4886
Fragmentation average = 0
	minimum = 0
	maximum = 0
Injected packet rate average = 0.0116562
	minimum = 0.0075 (at node 5)
	maximum = 0.0145 (at node 8)
Accepted packet rate average = 0.0114687
	minimum = 0 (at node 0)
	maximum = 0.1835 (at node 11)
Injected flit rate average = 0.0116562
	minimum = 0.0075 (at node 5)
	maximum = 0.0145 (at node 8)
Accepted flit rate average= 0.0114687
	minimum = 0 (at node 0)
	maximum = 0.1835 (at node 11)
Injected packet length average = 1
Accepted packet length average = 1
Total in-flight flits = 6 (6 measured)
latency change    = 0.0193061
throughput change = 0.0354223
Class 0:
Packet latency average = 20.1626
	minimum = 7
	maximum = 44
Network latency average = 20.1626
	minimum = 7
	maximum = 44
Slowest packet = 4886
Flit latency average = 20.1626
	minimum = 7
	maximum = 44
Slowest flit = 4886
Fragmentation average = 0
	minimum = 0
	maximum = 0
Injected packet rate average = 0.011475
	minimum = 0.0088 (at node 5)
	maximum = 0.0128 (at node 3)
Accepted packet rate average = 0.011375
	minimum = 0 (at node 0)
	maximum = 0.182 (at node 11)
Injected flit rate average = 0.011475
	minimum = 0.0088 (at node 5)
	maximum = 0.0128 (at node 3)
Accepted flit rate average= 0.011375
	minimum = 0 (at node 0)
	maximum = 0.182 (at node 11)
Injected packet length average = 1
Accepted packet length average = 1
Total in-flight flits = 4 (4 measured)
latency change    = 0.00414719
throughput change = 0.00824176
Draining all recorded packets ...
Draining remaining packets ...
Time taken is 4037 cycles
Class 0:
Packet latency average = 19.6914
	minimum = 7
	maximum = 32
Network latency average = 19.6914
	minimum = 7
	maximum = 32
Slowest packet = 5217
Flit latency average = 19.6914
	minimum = 7
	maximum = 32
Slowest flit = 5217
Fragmentation average = 0
	minimum = 0
	maximum = 0
Injected packet rate average = 0.010375
	minimum = 0.002 (at node 4)
	maximum = 0.02 (at node 12)
Accepted packet rate average = 0.010125
	minimum = 0 (at node 0)
	maximum = 0.162 (at node 11)
Injected flit rate average = 0.010375
	minimum = 0.002 (at node 4)
	maximum = 0.02 (at node 12)
Accepted flit rate average= 0.010125
	minimum = 0 (at node 0)
	maximum = 0.162 (at node 11)
Injected packet length average = 1
Accepted packet length average = 1
Total in-flight flits = 2 (0 measured)
latency change    = 1
throughput change = 1
Class 0:
Packet latency average = 19.7278
	minimum = 7
	maximum = 33
Network latency average = 19.7278
	minimum = 7
	maximum = 33
Slowest packet = 5294
Flit latency average = 19.7278
	minimum = 7
	maximum = 33
Slowest flit = 5294
Fragmentation average = 0
	minimum = 0
	maximum = 0
Injected packet rate average = 0.0099375
	minimum = 0.005 (at node 4)
	maximum = 0.015 (at node 13)
Accepted packet rate average = 0.009875
	minimum = 0 (at node 0)
	maximum = 0.158 (at node 11)
Injected flit rate average = 0.0099375
	minimum = 0.005 (at node 4)
	maximum = 0.015 (at node 13)
Accepted flit rate average= 0.009875
	minimum = 0 (at node 0)
	maximum = 0.158 (at node 11)
Injected packet length average = 1
Accepted packet length average = 1
Total in-flight flits = 1 (0 measured)
latency change    = 0.00184967
throughput change = 0.0253165
Class 0:
Packet latency average = 21.6667
	minimum = 7
	maximum = 37
Network latency average = 21.6667
	minimum = 7
	maximum = 37
Slowest packet = 5358
Flit latency average = 21.6667
	minimum = 7
	maximum = 37
Slowest flit = 5358
Fragmentation average = 0
	minimum = 0
	maximum = 0
Injected packet rate average = 0.011125
	minimum = 0.002 (at node 0)
	maximum = 0.02 (at node 12)
Accepted packet rate average = 0.010875
	minimum = 0 (at node 0)
	maximum = 0.174 (at node 11)
Injected flit rate average = 0.011125
	minimum = 0.002 (at node 0)
	maximum = 0.02 (at node 12)
Accepted flit rate average= 0.010875
	minimum = 0 (at node 0)
	maximum = 0.174 (at node 11)
Injected packet length average = 1
Accepted packet length average = 1
Total in-flight flits = 3 (0 measured)
latency change    = 0.0894839
throughput change = 0.091954
Warmed up ...Time used is 1500 cycles
Class 0:
Packet latency average = 19.7412
	minimum = 7
	maximum = 43
Network latency average = 19.7412
	minimum = 7
	maximum = 43
Slowest packet = 5480
Flit latency average = 19.875
	minimum = 7
	maximum = 43
Slowest flit = 5480
Fragmentation average = 0
	minimum = 0
	maximum = 0
Injected packet rate average = 0.01075
	minimum = 0.004 (at node 8)
	maximum = 0.022 (at node 11)
Accepted packet rate average = 0.011
	minimum = 0 (at node 0)
	maximum = 0.176 (at node 11)
Injected flit rate average = 0.01075
	minimum = 0.004 (at node 8)
	maximum = 0.022 (at node 11)
Accepted flit rate average= 0.011
	minimum = 0 (at node 0)
	maximum = 0.176 (at node 11)
Injected packet length average = 1
Accepted packet length average = 1
Total in-flight flits = 1 (1 measured)
latency change    = 0.0975368
throughput change = 0.0113636
Class 0:
Packet latency average = 20.3706
	minimum = 7
	maximum = 43
Network latency average = 20.3706
	minimum = 7
	maximum = 43
Slowest packet = 5480
Flit latency average = 20.4277
	minimum = 7
	maximum = 43
Slowest flit = 5480
Fragmentation average = 0
	minimum = 0
	maximum = 0
Injected packet rate average = 0.0108125
	minimum = 0.005 (at node 8)
	maximum = 0.016 (at node 11)
Accepted packet rate average = 0.0108125
	minimum = 0 (at node 0)
	maximum = 0.173 (at node 11)
Injected flit rate average = 0.0108125
	minimum = 0.005 (at node 8)
	maximum = 0.016 (at node 11)
Accepted flit rate average= 0.0108125
	minimum = 0 (at node 0)
	maximum = 0.173 (at node 11)
Injected packet length average = 1
Accepted packet length average = 1
Total in-flight flits = 3 (3 measured)
latency change    = 0.0308981
throughput change = 0.017341
Class 0:
Packet latency average = 20.3068
	minimum = 7
	maximum = 43
Network latency average = 20.3068
	minimum = 7
	maximum = 43
Slowest packet = 5480
Flit latency average = 20.3465
	minimum = 7
	maximum = 43
Slowest flit = 5480
Fragmentation average = 0
	minimum = 0
	maximum = 0
Injected packet rate average = 0.0105
	minimum = 0.00466667 (at node 10)
	maximum = 0.014 (at node 3)
Accepted packet rate average = 0.0105833
	minimum = 0 (at node 0)
	maximum = 0.169333 (at node 11)
Injected flit rate average = 0.0105
	minimum = 0.00466667 (at node 10)
	maximum = 0.014 (at node 3)
Accepted flit rate average= 0.0105833
	minimum = 0 (at node 0)
	maximum = 0.169333 (at node 11)
Injected packet length average = 1
Accepted packet length average = 1
Total in-flight flits = 1 (1 measured)
latency change    = 0.00314256
throughput change = 0.0216535
Class 0:
Packet latency average = 20.0556
	minimum = 7
	maximum = 43
Network latency average = 20.0556
	minimum = 7
	maximum = 43
Slowest packet = 5480
Flit latency average = 20.0887
	minimum = 7
	maximum = 43
Slowest flit = 5480
Fragmentation average = 0
	minimum = 0
	maximum = 0
Injected packet rate average = 0.01025
	minimum = 0.0075 (at node 15)
	maximum = 0.0145 (at node 7)
Accepted packet rate average = 0.0102188
	minimum = 0 (at node 0)
	maximum = 0.1635 (at node 11)
Injected flit rate average = 0.01025
	minimum = 0.0075 (at node 15)
	maximum = 0.0145 (at node 7)
Accepted flit rate average= 0.0102188
	minimum = 0 (at node 0)
	maximum = 0.1635 (at node 11)
Injected packet length average = 1
Accepted packet length average = 1
Total in-flight flits = 4 (4 measured)
latency change    = 0.0125261
throughput change = 0.0356779
Draining all recorded packets ...
Draining remaining packets ...
Time taken is 3518 cycles
Class 0:
Packet latency average = 21.5244
	minimum = 7
	maximum = 39
Network latency average = 21.5244
	minimum = 7
	maximum = 39
Slowest packet = 5805
Flit latency average = 21.5244
	minimum = 7
	maximum = 39
Slowest flit = 5805
Fragmentation average = 0
	minimum = 0
	maximum = 0
Injected packet rate average = 0.01075
	minimum = 0.004 (at node 11)
	maximum = 0.018 (at node 2)
Accepted packet rate average = 0.01025
	minimum = 0 (at node 0)
	maximum = 0.164 (at node 11)
Injected flit rate average = 0.01075
	minimum = 0.004 (at node 11)
	maximum = 0.018 (at node 2)
Accepted flit rate average= 0.01025
	minimum = 0 (at node 0)
	maximum = 0.164 (at node 11)
Injected packet length average = 1
Accepted packet length average = 1
Total in-flight flits = 4 (0 measured)
latency change    = 1
throughput change = 1
Class 0:
Packet latency average = 20.5976
	minimum = 7
	maximum = 39
Network latency average = 20.5976
	minimum = 7
	maximum = 39
Slowest packet = 5805
Flit latency average = 20.5976
	minimum = 7
	maximum = 39
Slowest flit = 5805
Fragmentation average = 0
	minimum = 0
	maximum = 0
Injected packet rate average = 0.0104375
	minimum = 0.006 (at node 4)
	maximum = 0.016 (at node 8)
Accepted packet rate average = 0.01025
	minimum = 0 (at node 0)
	maximum = 0.164 (at node 11)
Injected flit rate average = 0.0104375
	minimum = 0.006 (at node 4)
	maximum = 0.016 (at node 8)
Accepted flit rate average= 0.01025
	minimum = 0 (at node 0)
	maximum = 0.164 (at node 11)
Injected packet length average = 1
Accepted packet length average = 1
Total in-flight flits = 3 (0 measured)
latency change    = 0.044997
throughput change = 0
Class 0:
Packet latency average = 19.3288
	minimum = 7
	maximum = 35
Network latency average = 19.3288
	minimum = 7
	maximum = 35
Slowest packet = 5961
Flit latency average = 19.3288
	minimum = 7
	maximum = 35
Slowest flit = 5961
Fragmentation average = 0
	minimum = 0
	maximum = 0
Injected packet rate average = 0.009125
	minimum = 0.002 (at node 13)
	maximum = 0.018 (at node 14)
Accepted packet rate average = 0.009125
	minimum = 0 (at node 0)
	maximum = 0.146 (at node 11)
Injected flit rate average = 0.009125
	minimum = 0.002 (at node 13)
	maximum = 0.018 (at node 14)
Accepted flit rate average= 0.009125
	minimum = 0 (at node 0)
	maximum = 0.146 (at node 11)
Injected packet length average = 1
Accepted packet length average = 1
Total in-flight flits = 3 (0 measured)
latency change    = 0.0656428
throughput change = 0.123288
Warmed up ...Time used is 1500 cycles
Class 0:
Packet latency average = 19.7778
	minimum = 7
	maximum = 35
Network latency average = 19.7778
	minimum = 7
	maximum = 35
Slowest packet = 6028
Flit latency average = 20.0303
	minimum = 7
	maximum = 35
Slowest flit = 6028
Fragmentation average = 0
	minimum = 0
	maximum = 0
Injected packet rate average = 0.008125
	minimum = 0 (at node 3)
	maximum = 0.02 (at node 2)
Accepted packet rate average = 0.00825
	minimum = 0 (at node 0)
	maximum = 0.132 (at node 11)
Injected flit rate average = 0.008125
	minimum = 0 (at node 3)
	maximum = 0.02 (at node 2)
Accepted flit rate average= 0.00825
	minimum = 0 (at node 0)
	maximum = 0.132 (at node 11)
Injected packet length average = 1
Accepted packet length average = 1
Total in-flight flits = 2 (2 measured)
latency change    = 0.0227028
throughput change = 0.106061
Class 0:
Packet latency average = 19.95
	minimum = 7
	maximum = 35
Network latency average = 19.95
	minimum = 7
	maximum = 35
Slowest packet = 6028
Flit latency average = 20.0629
	minimum = 7
	maximum = 35
Slowest flit = 6028
Fragmentation average = 0
	minimum = 0
	maximum = 0
Injected packet rate average = 0.0089375
	minimum = 0.004 (at node 8)
	maximum = 0.017 (at node 1)
Accepted packet rate average = 0.0089375
	minimum = 0 (at node 0)
	maximum = 0.143 (at node 11)
Injected flit rate average = 0.0089375
	minimum = 0.004 (at node 8)
	maximum = 0.017 (at node 1)
Accepted flit rate average= 0.0089375
	minimum = 0 (at node 0)
	maximum = 0.143 (at node 11)
Injected packet length average = 1
Accepted packet length average = 1
Total in-flight flits = 3 (3 measured)
latency change    = 0.00863269
throughput change = 0.0769231
Class 0:
Packet latency average = 20.1366
	minimum = 7
	maximum = 46
Network latency average = 20.1366
	minimum = 7
	maximum = 46
Slowest packet = 6151
Flit latency average = 20.2043
	minimum = 7
	maximum = 46
Slowest flit = 6151
Fragmentation average = 0
	minimum = 0
	maximum = 0
Injected packet rate average = 0.00966667
	minimum = 0.00666667 (at node 4)
	maximum = 0.014 (at node 1)
Accepted packet rate average = 0.00958333
	minimum = 0 (at node 0)
	maximum = 0.153333 (at node 11)
Injected flit rate average = 0.00966667
	minimum = 0.00666667 (at node 4)
	maximum = 0.014 (at node 1)
Accepted flit rate average= 0.00958333
	minimum = 0 (at node 0)
	maximum = 0.153333 (at node 11)
Injected packet length average = 1
Accepted packet length average = 1
Total in-flight flits = 5 (5 measured)
latency change    = 0.00926493
throughput change = 0.0673913
Class 0:
Packet latency average = 19.8274
	minimum = 7
	maximum = 46
Network latency average = 19.8274
	minimum = 7
	maximum = 46
Slowest packet = 6151
Flit latency average = 19.8806
	minimum = 7
	maximum = 46
Slowest flit = 6151
Fragmentation average = 0
	minimum = 0
	maximum = 0
Injected packet rate average = 0.0096875
	minimum = 0.007 (at node 4)
	maximum = 0.013 (at node 1)
Accepted packet rate average = 0.0096875
	minimum = 0 (at node 0)
	maximum = 0.155 (at node 11)
Injected flit rate average = 0.0096875
	minimum = 0.007 (at node 4)
	maximum = 0.013 (at node 1)
Accepted flit rate average= 0.0096875
	minimum = 0 (at node 0)
	maximum = 0.155 (at node 11)
Injected packet length average = 1
Accepted packet length average = 1
Total in-flight flits = 3 (3 measured)
latency change    = 0.0155947
throughput change = 0.0107527
Class 0:
Packet latency average = 20.0052
	minimum = 7
	maximum = 46
Network latency average = 20.0052
	minimum = 7
	maximum = 46
Slowest packet = 6151
Flit latency average = 20.0463
	minimum = 7
	maximum = 46
Slowest flit = 6151
Fragmentation average = 0
	minimum = 0
	maximum = 0
Injected packet rate average = 0.00975
	minimum = 0.0076 (at node 4)
	maximum = 0.0124 (at node 1)
Accepted packet rate average = 0.009725
	minimum = 0 (at node 0)
	maximum = 0.1556 (at node 11)
Injected flit rate average = 0.00975
	minimum = 0.0076 (at node 4)
	maximum = 0.0124 (at node 1)
Accepted flit rate average= 0.009725
	minimum = 0 (at node 0)
	maximum = 0.1556 (at node 11)
Injected packet length average = 1
Accepted packet length average = 1
Total in-flight flits = 4 (4 measured)
latency change    = 0.00888869
throughput change = 0.00385604
Class 0:
Packet latency average = 19.8792
	minimum = 7
	maximum = 46
Network latency average = 19.8792
	minimum = 7
	maximum = 46
Slowest packet = 6151
Flit latency average = 19.9156
	minimum = 7
	maximum = 46
Slowest flit = 6151
Fragmentation average = 0
	minimum = 0
	maximum = 0
Injected packet rate average = 0.009375
	minimum = 0.00666667 (at node 13)
	maximum = 0.0123333 (at node 1)
Accepted packet rate average = 0.009375
	minimum = 0 (at node 0)
	maximum = 0.15 (at node 11)
Injected flit rate average = 0.009375
	minimum = 0.00666667 (at node 13)
	maximum = 0.0123333 (at node 1)
Accepted flit rate average= 0.009375
	minimum = 0 (at node 0)
	maximum = 0.15 (at node 11)
Injected packet length average = 1
Accepted packet length average = 1
Total in-flight flits = 3 (3 measured)
latency change    = 0.00633762
throughput change = 0.0373333
Draining all recorded packets ...
Draining remaining packets ...
Time taken is 4518 cycles
Class 0:
Packet latency average = 21.8028
	minimum = 7
	maximum = 34
Network latency average = 21.8028
	minimum = 7
	maximum = 34
Slowest packet = 6468
Flit latency average = 21.8028
	minimum = 7
	maximum = 34
Slowest flit = 6468
Fragmentation average = 0
	minimum = 0
	maximum = 0
Injected packet rate average = 0.009125
	minimum = 0 (at node 15)
	maximum = 0.016 (at node 0)
Accepted packet rate average = 0.008875
	minimum = 0 (at node 0)
	maximum = 0.142 (at node 11)
Injected flit rate average = 0.009125
	minimum = 0 (at node 15)
	maximum = 0.016 (at node 0)
Accepted flit rate average= 0.008875
	minimum = 0 (at node 0)
	maximum = 0.142 (at node 11)
Injected packet length average = 1
Accepted packet length average = 1
Total in-flight flits = 2 (0 measured)
latency change    = 1
throughput change = 1
Class 0:
Packet latency average = 20.7308
	minimum = 7
	maximum = 34
Network latency average = 20.7308
	minimum = 7
	maximum = 34
Slowest packet = 6468
Flit latency average = 20.7308
	minimum = 7
	maximum = 34
Slowest flit = 6468
Fragmentation average = 0
	minimum = 0
	maximum = 0
Injected packet rate average = 0.01
	minimum = 0.004 (at node 12)
	maximum = 0.014 (at node 1)
Accepted packet rate average = 0.00975
	minimum = 0 (at node 0)
	maximum = 0.156 (at node 11)
Injected flit rate average = 0.01
	minimum = 0.004 (at node 12)
	maximum = 0.014 (at node 1)
Accepted flit rate average= 0.00975
	minimum = 0 (at node 0)
	maximum = 0.156 (at node 11)
Injected packet length average = 1
Accepted packet length average = 1
Total in-flight flits = 4 (0 measured)
latency change    = 0.0517129
throughput change = 0.0897436
Class 0:
Packet latency average = 19.7564
	minimum = 7
	maximum = 35
Network latency average = 19.7564
	minimum = 7
	maximum = 35
Slowest packet = 6632
Flit latency average = 19.7564
	minimum = 7
	maximum = 35
Slowest flit = 6632
Fragmentation average = 0
	minimum = 0
	maximum = 0
Injected packet rate average = 0.009625
	minimum = 0.004 (at node 1)
	maximum = 0.02 (at node 0)
Accepted packet rate average = 0.00975
	minimum = 0 (at node 0)
	maximum = 0.156 (at node 11)
Injected flit rate average = 0.009625
	minimum = 0.004 (at node 1)
	maximum = 0.02 (at node 0)
Accepted flit rate average= 0.00975
	minimum = 0 (at node 0)
	maximum = 0.156 (at node 11)
Injected packet length average = 1
Accepted packet length average = 1
Total in-flight flits = 3 (0 measured)
latency change    = 0.0493186
throughput change = 0
Warmed up ...Time used is 1500 cycles
Class 0:
Packet latency average = 22.9655
	minimum = 7
	maximum = 59
Network latency average = 22.9655
	minimum = 7
	maximum = 59
Slowest packet = 6731
Flit latency average = 22.9889
	minimum = 7
	maximum = 59
Slowest flit = 6731
Fragmentation average = 0
	minimum = 0
	maximum = 0
Injected packet rate average = 0.011375
	minimum = 0.006 (at node 5)
	maximum = 0.022 (at node 4)
Accepted packet rate average = 0.01125
	minimum = 0 (at node 0)
	maximum = 0.18 (at node 11)
Injected flit rate average = 0.011375
	minimum = 0.006 (at node 5)
	maximum = 0.022 (at node 4)
Accepted flit rate average= 0.01125
	minimum = 0 (at node 0)
	maximum = 0.18 (at node 11)
Injected packet length average = 1
Accepted packet length average = 1
Total in-flight flits = 4 (4 measured)
latency change    = 0.139736
throughput change = 0.133333
Class 0:
Packet latency average = 20.9643
	minimum = 7
	maximum = 59
Network latency average = 20.9643
	minimum = 7
	maximum = 59
Slowest packet = 6731
Flit latency average = 21.0117
	minimum = 7
	maximum = 59
Slowest flit = 6731
Fragmentation average = 0
	minimum = 0
	maximum = 0
Injected packet rate average = 0.0106875
	minimum = 0.007 (at node 0)
	maximum = 0.018 (at node 4)
Accepted packet rate average = 0.0106875
	minimum = 0 (at node 0)
	maximum = 0.171 (at node 11)
Injected flit rate average = 0.0106875
	minimum = 0.007 (at node 0)
	maximum = 0.018 (at node 4)
Accepted flit rate average= 0.0106875
	minimum = 0 (at node 0)
	maximum = 0.171 (at node 11)
Injected packet length average = 1
Accepted packet length average = 1
Total in-flight flits = 3 (3 measured)
latency change    = 0.0954591
throughput change = 0.0526316
Class 0:
Packet latency average = 20.7782
	minimum = 7
	maximum = 59
Network latency average = 20.7782
	minimum = 7
	maximum = 59
Slowest packet = 6731
Flit latency average = 20.8127
	minimum = 7
	maximum = 59
Slowest flit = 6731
Fragmentation average = 0
	minimum = 0
	maximum = 0
Injected packet rate average = 0.0103333
	minimum = 0.00666667 (at node 0)
	maximum = 0.0146667 (at node 2)
Accepted packet rate average = 0.0104583
	minimum = 0 (at node 0)
	maximum = 0.167333 (at node 11)
Injected flit rate average = 0.0103333
	minimum = 0.00666667 (at node 0)
	maximum = 0.0146667 (at node 2)
Accepted flit rate average= 0.0104583
	minimum = 0 (at node 0)
	maximum = 0.167333 (at node 11)
Injected packet length average = 1
Accepted packet length average = 1
Total in-flight flits = 0 (0 measured)
latency change    = 0.00895456
throughput change = 0.0219124
Class 0:
Packet latency average = 20.7209
	minimum = 7
	maximum = 59
Network latency average = 20.7209
	minimum = 7
	maximum = 59
Slowest packet = 6731
Flit latency average = 20.7464
	minimum = 7
	maximum = 59
Slowest flit = 6731
Fragmentation average = 0
	minimum = 0
	maximum = 0
Injected packet rate average = 0.0107812
	minimum = 0.0075 (at node 14)
	maximum = 0.015 (at node 8)
Accepted packet rate average = 0.0108437
	minimum = 0 (at node 0)
	maximum = 0.1735 (at node 11)
Injected flit rate average = 0.0107812
	minimum = 0.0075 (at node 14)
	maximum = 0.015 (at node 8)
Accepted flit rate average= 0.0108437
	minimum = 0 (at node 0)
	maximum = 0.1735 (at node 11)
Injected packet length average = 1
Accepted packet length average = 1
Total in-flight flits = 1 (1 measured)
latency change    = 0.00276511
throughput change = 0.0355427
Class 0:
Packet latency average = 20.545
	minimum = 7
	maximum = 59
Network latency average = 20.545
	minimum = 7
	maximum = 59
Slowest packet = 6731
Flit latency average = 20.5671
	minimum = 7
	maximum = 59
Slowest flit = 6731
Fragmentation average = 0
	minimum = 0
	maximum = 0
Injected packet rate average = 0.01065
	minimum = 0.0076 (at node 1)
	maximum = 0.0144 (at node 8)
Accepted packet rate average = 0.010625
	minimum = 0 (at node 0)
	maximum = 0.17 (at node 11)
Injected flit rate average = 0.01065
	minimum = 0.0076 (at node 1)
	maximum = 0.0144 (at node 8)
Accepted flit rate average= 0.010625
	minimum = 0 (at node 0)
	maximum = 0.17 (at node 11)
Injected packet length average = 1
Accepted packet length average = 1
Total in-flight flits = 4 (4 measured)
latency change    = 0.008562
throughput change = 0.0205882
Draining all recorded packets ...
Draining remaining packets ...
Time taken is 4037 cycles
Class 0:
Packet latency average = 21.1408
	minimum = 7
	maximum = 38
Network latency average = 21.1408
	minimum = 7
	maximum = 38
Slowest packet = 7120
Flit latency average = 21.1408
	minimum = 7
	maximum = 38
Slowest flit = 7120
Fragmentation average = 0
	minimum = 0
	maximum = 0
Injected packet rate average = 0.009125
	minimum = 0 (at node 2)
	maximum = 0.018 (at node 0)
Accepted packet rate average = 0.008875
	minimum = 0 (at node 0)
	maximum = 0.142 (at node 11)
Injected flit rate average = 0.009125
	minimum = 0 (at node 2)
	maximum = 0.018 (at node 0)
Accepted flit rate average= 0.008875
	minimum = 0 (at node 0)
	maximum = 0.142 (at node 11)
Injected packet length average = 1
Accepted packet length average = 1
Total in-flight flits = 2 (0 measured)
latency change    = 1
throughput change = 1
Class 0:
Packet latency average = 20.4392
	minimum = 7
	maximum = 38
Network latency average = 20.4392
	minimum = 7
	maximum = 38
Slowest packet = 7120
Flit latency average = 20.4392
	minimum = 7
	maximum = 38
Slowest flit = 7120
Fragmentation average = 0
	minimum = 0
	maximum = 0
Injected packet rate average = 0.0095
	minimum = 0.003 (at node 2)
	maximum = 0.018 (at node 4)
Accepted packet rate average = 0.00925
	minimum = 0 (at node 0)
	maximum = 0.148 (at node 11)
Injected flit rate average = 0.0095
	minimum = 0.003 (at node 2)
	maximum = 0.018 (at node 4)
Accepted flit rate average= 0.00925
	minimum = 0 (at node 0)
	maximum = 0.148 (at node 11)
Injected packet length average = 1
Accepted packet length average = 1
Total in-flight flits = 4 (0 measured)
latency change    = 0.0343289
throughput change = 0.0405405
Class 0:
Packet latency average = 22.1944
	minimum = 8
	maximum = 36
Network latency average = 22.1944
	minimum = 8
	maximum = 36
Slowest packet = 7276
Flit latency average = 22.1944
	minimum = 8
	maximum = 36
Slowest flit = 7276
Fragmentation average = 0
	minimum = 0
	maximum = 0
Injected packet rate average = 0.008875
	minimum = 0.002 (at node 7)
	maximum = 0.016 (at node 6)
Accepted packet rate average = 0.009
	minimum = 0 (at node 0)
	maximum = 0.144 (at node 11)
Injected flit rate average = 0.008875
	minimum = 0.002 (at node 7)
	maximum = 0.016 (at node 6)
Accepted flit rate average= 0.009
	minimum = 0 (at node 0)
	maximum = 0.144 (at node 11)
Injected packet length average = 1
Accepted packet length average = 1
Total in-flight flits = 3 (0 measured)
latency change    = 0.0790853
throughput change = 0.0277778
Warmed up ...Time used is 1500 cycles
Class 0:
Packet latency average = 20.8933
	minimum = 7
	maximum = 36
Network latency average = 20.8933
	minimum = 7
	maximum = 36
Slowest packet = 7337
Flit latency average = 20.8077
	minimum = 7
	maximum = 36
Slowest flit = 7337
Fragmentation average = 0
	minimum = 0
	maximum = 0
Injected packet rate average = 0.0095
	minimum = 0.004 (at node 6)
	maximum = 0.018 (at node 13)
Accepted packet rate average = 0.00975
	minimum = 0 (at node 0)
	maximum = 0.156 (at node 11)
Injected flit rate average = 0.0095
	minimum = 0.004 (at node 6)
	maximum = 0.018 (at node 13)
Accepted flit rate average= 0.00975
	minimum = 0 (at node 0)
	maximum = 0.156 (at node 11)
Injected packet length average = 1
Accepted packet length average = 1
Total in-flight flits = 1 (1 measured)
latency change    = 0.062274
throughput change = 0.0769231
Class 0:
Packet latency average = 20.7962
	minimum = 7
	maximum = 39
Network latency average = 20.7962
	minimum = 7
	maximum = 39
Slowest packet = 7425
Flit latency average = 20.7563
	minimum = 7
	maximum = 39
Slowest flit = 7425
Fragmentation average = 0
	minimum = 0
	maximum = 0
Injected packet rate average = 0.0098125
	minimum = 0.006 (at node 1)
	maximum = 0.015 (at node 15)
Accepted packet rate average = 0.01
	minimum = 0 (at node 0)
	maximum = 0.16 (at node 11)
Injected flit rate average = 0.0098125
	minimum = 0.006 (at node 1)
	maximum = 0.015 (at node 15)
Accepted flit rate average= 0.01
	minimum = 0 (at node 0)
	maximum = 0.16 (at node 11)
Injected packet length average = 1
Accepted packet length average = 1
Total in-flight flits = 0 (0 measured)
latency change    = 0.00467177
throughput change = 0.025
Class 0:
Packet latency average = 20.413
	minimum = 7
	maximum = 39
Network latency average = 20.413
	minimum = 7
	maximum = 39
Slowest packet = 7425
Flit latency average = 20.3906
	minimum = 7
	maximum = 39
Slowest flit = 7425
Fragmentation average = 0
	minimum = 0
	maximum = 0
Injected packet rate average = 0.009875
	minimum = 0.006 (at node 1)
	maximum = 0.0133333 (at node 0)
Accepted packet rate average = 0.00970833
	minimum = 0 (at node 0)
	maximum = 0.155333 (at node 11)
Injected flit rate average = 0.009875
	minimum = 0.006 (at node 1)
	maximum = 0.0133333 (at node 0)
Accepted flit rate average= 0.00970833
	minimum = 0 (at node 0)
[...]
Accepted packet length average = 1
Total in-flight flits = 1 (0 measured)
latency change    = 0.0319183
throughput change = 0.132075
Class 0:
Packet latency average = 20.88
	minimum = 7
	maximum = 39
Network latency average = 20.88
	minimum = 7
	maximum = 39
Slowest packet = 31484
Flit latency average = 20.88
	minimum = 7
	maximum = 39
Slowest flit = 31484
Fragmentation average = 0
	minimum = 0
	maximum = 0
Injected packet rate average = 0.009375
	minimum = 0.002 (at node 13)
	maximum = 0.02 (at node 12)
Accepted packet rate average = 0.009375
	minimum = 0 (at node 0)
	maximum = 0.15 (at node 11)
Injected flit rate average = 0.009375
	minimum = 0.002 (at node 13)
	maximum = 0.02 (at node 12)
Accepted flit rate average= 0.009375
	minimum = 0 (at node 0)
	maximum = 0.15 (at node 11)
Injected packet length average = 1
Accepted packet length average = 1
Total in-flight flits = 1 (0 measured)
latency change    = 0.0563026
throughput change = 0.06
Warmed up ...Time used is 1500 cycles
Class 0:
Packet latency average = 19.2027
	minimum = 7
	maximum = 38
Network latency average = 19.2027
	minimum = 7
	maximum = 38
Slowest packet = 31549
Flit latency average = 19.3067
	minimum = 7
	maximum = 38
Slowest flit = 31549
Fragmentation average = 0
	minimum = 0
	maximum = 0
Injected packet rate average = 0.009375
	minimum = 0.002 (at node 5)
	maximum = 0.016 (at node 11)
Accepted packet rate average = 0.009375
	minimum = 0 (at node 0)
	maximum = 0.15 (at node 11)
Injected flit rate average = 0.009375
	minimum = 0.002 (at node 5)
	maximum = 0.016 (at node 11)
Accepted flit rate average= 0.009375
	minimum = 0 (at node 0)
	maximum = 0.15 (at node 11)
Injected packet length average = 1
Accepted packet length average = 1
Total in-flight flits = 1 (1 measured)
latency change    = 0.0873469
throughput change = 0
Class 0:
Packet latency average = 19.4774
	minimum = 7
	maximum = 38
Network latency average = 19.4774
	minimum = 7
	maximum = 38
Slowest packet = 31549
Flit latency average = 19.5256
	minimum = 7
	maximum = 38
Slowest flit = 31549
Fragmentation average = 0
	minimum = 0
	maximum = 0
Injected packet rate average = 0.0098125
	minimum = 0.006 (at node 0)
	maximum = 0.012 (at node 4)
Accepted packet rate average = 0.00975
	minimum = 0 (at node 0)
	maximum = 0.156 (at node 11)
Injected flit rate average = 0.0098125
	minimum = 0.006 (at node 0)
	maximum = 0.012 (at node 4)
Accepted flit rate average= 0.00975
	minimum = 0 (at node 0)
	maximum = 0.156 (at node 11)
Injected packet length average = 1
Accepted packet length average = 1
Total in-flight flits = 2 (2 measured)
latency change    = 0.0141044
throughput change = 0.0384615
Class 0:
Packet latency average = 19.8018
	minimum = 7
	maximum = 38
Network latency average = 19.8018
	minimum = 7
	maximum = 38
Slowest packet = 31549
Flit latency average = 19.8341
	minimum = 7
	maximum = 38
Slowest flit = 31549
Fragmentation average = 0
	minimum = 0
	maximum = 0
Injected packet rate average = 0.00945833
	minimum = 0.00466667 (at node 3)
	maximum = 0.014 (at node 15)
Accepted packet rate average = 0.00929167
	minimum = 0 (at node 0)
	maximum = 0.148667 (at node 11)
Injected flit rate average = 0.00945833
	minimum = 0.00466667 (at node 3)
	maximum = 0.014 (at node 15)
Accepted flit rate average= 0.00929167
	minimum = 0 (at node 0)
	maximum = 0.148667 (at node 11)
Injected packet length average = 1
Accepted packet length average = 1
Total in-flight flits = 5 (5 measured)
latency change    = 0.0163815
throughput change = 0.0493274
Class 0:
Packet latency average = 20.1143
	minimum = 7
	maximum = 41
Network latency average = 20.1143
	minimum = 7
	maximum = 41
Slowest packet = 31819
Flit latency average = 20.1361
	minimum = 7
	maximum = 41
Slowest flit = 31819
Fragmentation average = 0
	minimum = 0
	maximum = 0
Injected packet rate average = 0.009875
	minimum = 0.0055 (at node 5)
	maximum = 0.013 (at node 15)
Accepted packet rate average = 0.009875
	minimum = 0 (at node 0)
	maximum = 0.158 (at node 11)
Injected flit rate average = 0.009875
	minimum = 0.0055 (at node 5)
	maximum = 0.013 (at node 15)
Accepted flit rate average= 0.009875
	minimum = 0 (at node 0)
	maximum = 0.158 (at node 11)
Injected packet length average = 1
Accepted packet length average = 1
Total in-flight flits = 1 (1 measured)
latency change    = 0.0155354
throughput change = 0.0590717
Class 0:
Packet latency average = 20.3249
	minimum = 7
	maximum = 41
Network latency average = 20.3249
	minimum = 7
	maximum = 41
Slowest packet = 31819
Flit latency average = 20.3418
	minimum = 7
	maximum = 41
Slowest flit = 31819
Fragmentation average = 0
	minimum = 0
	maximum = 0
Injected packet rate average = 0.01
	minimum = 0.006 (at node 5)
	maximum = 0.0128 (at node 15)
Accepted packet rate average = 0.009875
	minimum = 0 (at node 0)
	maximum = 0.158 (at node 11)
Injected flit rate average = 0.01
	minimum = 0.006 (at node 5)
	maximum = 0.0128 (at node 15)
Accepted flit rate average= 0.009875
	minimum = 0 (at node 0)
	maximum = 0.158 (at node 11)
Injected packet length average = 1
Accepted packet length average = 1
Total in-flight flits = 6 (6 measured)
latency change    = 0.0103611
throughput change = 0
Class 0:
Packet latency average = 20.2918
	minimum = 7
	maximum = 41
Network latency average = 20.2918
	minimum = 7
	maximum = 41
Slowest packet = 31819
Flit latency average = 20.3062
	minimum = 7
	maximum = 41
Slowest flit = 31819
Fragmentation average = 0
	minimum = 0
	maximum = 0
Injected packet rate average = 0.00972917
	minimum = 0.00633333 (at node 8)
	maximum = 0.0123333 (at node 2)
Accepted packet rate average = 0.00972917
	minimum = 0 (at node 0)
	maximum = 0.155667 (at node 11)
Injected flit rate average = 0.00972917
	minimum = 0.00633333 (at node 8)
	maximum = 0.0123333 (at node 2)
Accepted flit rate average= 0.00972917
	minimum = 0 (at node 0)
	maximum = 0.155667 (at node 11)
Injected packet length average = 1
Accepted packet length average = 1
Total in-flight flits = 1 (1 measured)
latency change    = 0.00162763
throughput change = 0.0149893
Class 0:
Packet latency average = 20.1473
	minimum = 7
	maximum = 41
Network latency average = 20.1473
	minimum = 7
	maximum = 41
Slowest packet = 31819
Flit latency average = 20.1597
	minimum = 7
	maximum = 41
Slowest flit = 31819
Fragmentation average = 0
	minimum = 0
	maximum = 0
Injected packet rate average = 0.00989286
	minimum = 0.00657143 (at node 5)
	maximum = 0.0131429 (at node 15)
Accepted packet rate average = 0.00983929
	minimum = 0 (at node 0)
	maximum = 0.157429 (at node 11)
Injected flit rate average = 0.00989286
	minimum = 0.00657143 (at node 5)
	maximum = 0.0131429 (at node 15)
Accepted flit rate average= 0.00983929
	minimum = 0 (at node 0)
	maximum = 0.157429 (at node 11)
Injected packet length average = 1
Accepted packet length average = 1
Total in-flight flits = 4 (4 measured)
latency change    = 0.0071758
throughput change = 0.0111918
Draining all recorded packets ...
Draining remaining packets ...
Time taken is 5043 cycles
Class 0:
Packet latency average = 19.5952
	minimum = 7
	maximum = 33
Network latency average = 19.5952
	minimum = 7
	maximum = 33
Slowest packet = 32119
Flit latency average = 19.5952
	minimum = 7
	maximum = 33
Slowest flit = 32119
Fragmentation average = 0
	minimum = 0
	maximum = 0
Injected packet rate average = 0.010875
	minimum = 0.004 (at node 5)
	maximum = 0.02 (at node 9)
Accepted packet rate average = 0.0105
	minimum = 0 (at node 0)
	maximum = 0.168 (at node 11)
Injected flit rate average = 0.010875
	minimum = 0.004 (at node 5)
	maximum = 0.02 (at node 9)
Accepted flit rate average= 0.0105
	minimum = 0 (at node 0)
	maximum = 0.168 (at node 11)
Injected packet length average = 1
Accepted packet length average = 1
Total in-flight flits = 3 (0 measured)
latency change    = 1
throughput change = 1
Class 0:
Packet latency average = 19.6402
	minimum = 7
	maximum = 33
Network latency average = 19.6402
	minimum = 7
	maximum = 33
Slowest packet = 32119
Flit latency average = 19.6402
	minimum = 7
	maximum = 33
Slowest flit = 32119
Fragmentation average = 0
	minimum = 0
	maximum = 0
Injected packet rate average = 0.0104375
	minimum = 0.005 (at node 5)
	maximum = 0.016 (at node 9)
Accepted packet rate average = 0.01025
	minimum = 0 (at node 0)
	maximum = 0.164 (at node 11)
Injected flit rate average = 0.0104375
	minimum = 0.005 (at node 5)
	maximum = 0.016 (at node 9)
Accepted flit rate average= 0.01025
	minimum = 0 (at node 0)
	maximum = 0.164 (at node 11)
Injected packet length average = 1
Accepted packet length average = 1
Total in-flight flits = 3 (0 measured)
latency change    = 0.00229151
throughput change = 0.0243902
Class 0:
Packet latency average = 19.1389
	minimum = 7
	maximum = 32
Network latency average = 19.1389
	minimum = 7
	maximum = 32
Slowest packet = 32266
Flit latency average = 19.1389
	minimum = 7
	maximum = 32
Slowest flit = 32266
Fragmentation average = 0
	minimum = 0
	maximum = 0
Injected packet rate average = 0.009125
	minimum = 0.004 (at node 5)
	maximum = 0.022 (at node 2)
Accepted packet rate average = 0.009
	minimum = 0 (at node 0)
	maximum = 0.144 (at node 11)
Injected flit rate average = 0.009125
	minimum = 0.004 (at node 5)
	maximum = 0.022 (at node 2)
Accepted flit rate average= 0.009
	minimum = 0 (at node 0)
	maximum = 0.144 (at node 11)
Injected packet length average = 1
Accepted packet length average = 1
Total in-flight flits = 4 (0 measured)
latency change    = 0.0261956
throughput change = 0.138889
Warmed up ...Time used is 1500 cycles
Class 0:
Packet latency average = 19.4091
	minimum = 7
	maximum = 39
Network latency average = 19.4091
	minimum = 7
	maximum = 39
Slowest packet = 32392
Flit latency average = 19.587
	minimum = 7
	maximum = 39
Slowest flit = 32392
Fragmentation average = 0
	minimum = 0
	maximum = 0
Injected packet rate average = 0.011125
	minimum = 0.002 (at node 2)
	maximum = 0.02 (at node 11)
Accepted packet rate average = 0.0115
	minimum = 0 (at node 0)
	maximum = 0.184 (at node 11)
Injected flit rate average = 0.011125
	minimum = 0.002 (at node 2)
	maximum = 0.02 (at node 11)
Accepted flit rate average= 0.0115
	minimum = 0 (at node 0)
	maximum = 0.184 (at node 11)
Injected packet length average = 1
Accepted packet length average = 1
Total in-flight flits = 1 (1 measured)
latency change    = 0.0139214
throughput change = 0.217391
Class 0:
Packet latency average = 19.2414
	minimum = 7
	maximum = 39
Network latency average = 19.2414
	minimum = 7
	maximum = 39
Slowest packet = 32392
Flit latency average = 19.3371
	minimum = 7
	maximum = 39
Slowest flit = 32392
Fragmentation average = 0
	minimum = 0
	maximum = 0
Injected packet rate average = 0.0110625
	minimum = 0.005 (at node 7)
	maximum = 0.02 (at node 8)
Accepted packet rate average = 0.011125
	minimum = 0 (at node 0)
	maximum = 0.178 (at node 11)
Injected flit rate average = 0.0110625
	minimum = 0.005 (at node 7)
	maximum = 0.02 (at node 8)
Accepted flit rate average= 0.011125
	minimum = 0 (at node 0)
	maximum = 0.178 (at node 11)
Injected packet length average = 1
Accepted packet length average = 1
Total in-flight flits = 3 (3 measured)
latency change    = 0.00871619
throughput change = 0.0337079
Class 0:
Packet latency average = 19.8377
	minimum = 7
	maximum = 45
Network latency average = 19.8377
	minimum = 7
	maximum = 45
Slowest packet = 32516
Flit latency average = 19.8922
	minimum = 7
	maximum = 45
Slowest flit = 32516
Fragmentation average = 0
	minimum = 0
	maximum = 0
Injected packet rate average = 0.0112917
	minimum = 0.006 (at node 7)
	maximum = 0.016 (at node 11)
Accepted packet rate average = 0.0112083
	minimum = 0 (at node 0)
	maximum = 0.179333 (at node 11)
Injected flit rate average = 0.0112917
	minimum = 0.006 (at node 7)
	maximum = 0.016 (at node 11)
Accepted flit rate average= 0.0112083
	minimum = 0 (at node 0)
	maximum = 0.179333 (at node 11)
Injected packet length average = 1
Accepted packet length average = 1
Total in-flight flits = 6 (6 measured)
latency change    = 0.0300617
throughput change = 0.00743494
Class 0:
Packet latency average = 20.0435
	minimum = 7
	maximum = 45
Network latency average = 20.0435
	minimum = 7
	maximum = 45
Slowest packet = 32516
Flit latency average = 20.0831
	minimum = 7
	maximum = 45
Slowest flit = 32516
Fragmentation average = 0
	minimum = 0
	maximum = 0
Injected packet rate average = 0.0108437
	minimum = 0.007 (at node 7)
	maximum = 0.0145 (at node 11)
Accepted packet rate average = 0.0109062
	minimum = 0 (at node 0)
	maximum = 0.1745 (at node 11)
Injected flit rate average = 0.0108437
	minimum = 0.007 (at node 7)
	maximum = 0.0145 (at node 11)
Accepted flit rate average= 0.0109062
	minimum = 0 (at node 0)
	maximum = 0.1745 (at node 11)
Injected packet length average = 1
Accepted packet length average = 1
Total in-flight flits = 2 (2 measured)
latency change    = 0.0102648
throughput change = 0.0276982
Draining all recorded packets ...
Draining remaining packets ...
Time taken is 3537 cycles
Class 0:
Packet latency average = 21.0215
	minimum = 7
	maximum = 37
Network latency average = 21.0215
	minimum = 7
	maximum = 37
Slowest packet = 32737
Flit latency average = 21.0215
	minimum = 7
	maximum = 37
Slowest flit = 32737
Fragmentation average = 0
	minimum = 0
	maximum = 0
Injected packet rate average = 0.011875
	minimum = 0.004 (at node 14)
	maximum = 0.02 (at node 1)
Accepted packet rate average = 0.011625
	minimum = 0 (at node 0)
	maximum = 0.186 (at node 11)
Injected flit rate average = 0.011875
	minimum = 0.004 (at node 14)
	maximum = 0.02 (at node 1)
Accepted flit rate average= 0.011625
	minimum = 0 (at node 0)
	maximum = 0.186 (at node 11)
Injected packet length average = 1
Accepted packet length average = 1
Total in-flight flits = 2 (0 measured)
latency change    = 1
throughput change = 1
Class 0:
Packet latency average = 19.9483
	minimum = 7
	maximum = 37
Network latency average = 19.9483
	minimum = 7
	maximum = 37
Slowest packet = 32737
Flit latency average = 19.9483
	minimum = 7
	maximum = 37
Slowest flit = 32737
Fragmentation average = 0
	minimum = 0
	maximum = 0
Injected packet rate average = 0.011
	minimum = 0.005 (at node 4)
	maximum = 0.016 (at node 3)
Accepted packet rate average = 0.010875
	minimum = 0 (at node 0)
	maximum = 0.174 (at node 11)
Injected flit rate average = 0.011
	minimum = 0.005 (at node 4)
	maximum = 0.016 (at node 3)
Accepted flit rate average= 0.010875
	minimum = 0 (at node 0)
	maximum = 0.174 (at node 11)
Injected packet length average = 1
Accepted packet length average = 1
Total in-flight flits = 2 (0 measured)
latency change    = 0.0538006
throughput change = 0.0689655
Class 0:
Packet latency average = 21.1875
	minimum = 7
	maximum = 51
Network latency average = 21.1875
	minimum = 7
	maximum = 51
Slowest packet = 32898
Flit latency average = 21.1875
	minimum = 7
	maximum = 51
Slowest flit = 32898
Fragmentation average = 0
	minimum = 0
	maximum = 0
Injected packet rate average = 0.0105
	minimum = 0.002 (at node 7)
	maximum = 0.02 (at node 3)
Accepted packet rate average = 0.01
	minimum = 0 (at node 0)
	maximum = 0.16 (at node 11)
Injected flit rate average = 0.0105
	minimum = 0.002 (at node 7)
	maximum = 0.02 (at node 3)
Accepted flit rate average= 0.01
	minimum = 0 (at node 0)
	maximum = 0.16 (at node 11)
Injected packet length average = 1
Accepted packet length average = 1
Total in-flight flits = 6 (0 measured)
latency change    = 0.0584885
throughput change = 0.0875
Warmed up ...Time used is 1500 cycles
Class 0:
Packet latency average = 18.9859
	minimum = 7
	maximum = 32
Network latency average = 18.9859
	minimum = 7
	maximum = 32
Slowest packet = 32943
Flit latency average = 19.6883
	minimum = 7
	maximum = 32
Slowest flit = 32933
Fragmentation average = 0
	minimum = 0
	maximum = 0
Injected packet rate average = 0.009125
	minimum = 0 (at node 8)
	maximum = 0.02 (at node 15)
Accepted packet rate average = 0.009625
	minimum = 0 (at node 0)
	maximum = 0.154 (at node 11)
Injected flit rate average = 0.009125
	minimum = 0 (at node 8)
	maximum = 0.02 (at node 15)
Accepted flit rate average= 0.009625
	minimum = 0 (at node 0)
	maximum = 0.154 (at node 11)
Injected packet length average = 1
Accepted packet length average = 1
Total in-flight flits = 2 (2 measured)
latency change    = 0.115959
throughput change = 0.038961
Class 0:
Packet latency average = 19.6467
	minimum = 7
	maximum = 33
Network latency average = 19.6467
	minimum = 7
	maximum = 33
Slowest packet = 33044
Flit latency average = 19.9679
	minimum = 7
	maximum = 33
Slowest flit = 33044
Fragmentation average = 0
	minimum = 0
	maximum = 0
Injected packet rate average = 0.009625
	minimum = 0.003 (at node 8)
	maximum = 0.016 (at node 15)
Accepted packet rate average = 0.00975
	minimum = 0 (at node 0)
	maximum = 0.156 (at node 11)
Injected flit rate average = 0.009625
	minimum = 0.003 (at node 8)
	maximum = 0.016 (at node 15)
Accepted flit rate average= 0.00975
	minimum = 0 (at node 0)
	maximum = 0.156 (at node 11)
Injected packet length average = 1
Accepted packet length average = 1
Total in-flight flits = 4 (4 measured)
latency change    = 0.0336317
throughput change = 0.0128205
Class 0:
Packet latency average = 19.6753
	minimum = 7
	maximum = 33
Network latency average = 19.6753
	minimum = 7
	maximum = 33
Slowest packet = 33044
Flit latency average = 19.8861
	minimum = 7
	maximum = 33
Slowest flit = 33044
Fragmentation average = 0
	minimum = 0
	maximum = 0
Injected packet rate average = 0.00979167
	minimum = 0.004 (at node 8)
	maximum = 0.0146667 (at node 1)
Accepted packet rate average = 0.009875
	minimum = 0 (at node 0)
	maximum = 0.158 (at node 11)
Injected flit rate average = 0.00979167
	minimum = 0.004 (at node 8)
	maximum = 0.0146667 (at node 1)
Accepted flit rate average= 0.009875
	minimum = 0 (at node 0)
	maximum = 0.158 (at node 11)
Injected packet length average = 1
Accepted packet length average = 1
Total in-flight flits = 4 (4 measured)
latency change    = 0.00145655
throughput change = 0.0126582
Class 0:
Packet latency average = 19.7003
	minimum = 7
	maximum = 40
Network latency average = 19.7003
	minimum = 7
	maximum = 40
Slowest packet = 33173
Flit latency average = 19.8545
	minimum = 7
	maximum = 40
Slowest flit = 33173
Fragmentation average = 0
	minimum = 0
	maximum = 0
Injected packet rate average = 0.0100625
	minimum = 0.0055 (at node 4)
	maximum = 0.014 (at node 1)
Accepted packet rate average = 0.0100938
	minimum = 0 (at node 0)
	maximum = 0.1615 (at node 11)
Injected flit rate average = 0.0100625
	minimum = 0.0055 (at node 4)
	maximum = 0.014 (at node 1)
Accepted flit rate average= 0.0100938
	minimum = 0 (at node 0)
	maximum = 0.1615 (at node 11)
Injected packet length average = 1
Accepted packet length average = 1
Total in-flight flits = 5 (5 measured)
latency change    = 0.00126855
throughput change = 0.0216718
Draining all recorded packets ...
Draining remaining packets ...
Time taken is 3549 cycles
====== Overall Traffic Statistics ======
====== Traffic class 0 ======
Packet latency average = 20.2213 (50 samples)
	minimum = 7 (50 samples)
	maximum = 45.66 (50 samples)
Network latency average = 20.2213 (50 samples)
	minimum = 7 (50 samples)
	maximum = 45.66 (50 samples)
Flit latency average = 20.2516 (50 samples)
	minimum = 7 (50 samples)
	maximum = 45.66 (50 samples)
Fragmentation average = 0 (50 samples)
	minimum = 0 (50 samples)
	maximum = 0 (50 samples)
Injected packet rate average = 0.0100756 (50 samples)
	minimum = 0.00676733 (50 samples)
	maximum = 0.0136669 (50 samples)
Accepted packet rate average = 0.0100751 (50 samples)
	minimum = 0 (50 samples)
	maximum = 0.161201 (50 samples)
Injected flit rate average = 0.0100756 (50 samples)
	minimum = 0.00676733 (50 samples)
	maximum = 0.0136669 (50 samples)
Accepted flit rate average = 0.0100751 (50 samples)
	minimum = 0 (50 samples)
	maximum = 0.161201 (50 samples)
Injected packet size average = 1 (50 samples)
Accepted packet size average = 1 (50 samples)
Hops average = 3.48388 (50 samples)
Total run time 1.28381
