BEGIN Configuration File: /tmp/tmplax7bp0z.cfg
topology = mesh;
k = 4;
n = 2;
routing_function = gnn_port_score_route_4x4_v4;
num_vcs = 4;
vc_buf_size = 4;
wait_for_tail_credit = 1;
vc_allocator = islip;
sw_allocator = islip;
alloc_iters = 1;
credit_delay = 2;
routing_delay = 1;
vc_alloc_delay = 1;
sw_alloc_delay = 1;
input_speedup = 2;
output_speedup = 1;
internal_speedup = 1.0;
traffic = uniform;
packet_size = 1;
sim_type = latency;
injection_rate = 0.05;
warmup_periods = 3;
sample_period = 500;
sim_count = 50;
seed = 0;
link_failures = 7;
fail_seed = 101;

END Configuration File: /tmp/tmplax7bp0z.cfg
failure at node 14, channel 0 (1/7)
failure at node 12, channel 0 (2/7)
failure at node 4, channel 2 (3/7)
failure at node 11, channel 1 (4/7)
failure at node 5, channel 3 (5/7)
failure at node 9, channel 0 (6/7)
failure at node 8, channel 3 (7/7)
Class 0:
Packet latency average = 20.426
	minimum = 7
	maximum = 64
Network latency average = 20.426
	minimum = 7
	maximum = 64
Slowest packet = 244
Flit latency average = 20.426
	minimum = 7
	maximum = 64
Slowest flit = 244
Fragmentation average = 0
	minimum = 0
	maximum = 0
Injected packet rate average = 0.049625
	minimum = 0.032 (at node 8)
	maximum = 0.064 (at node 13)
Accepted packet rate average = 0.048125
	minimum = 0.024 (at node 11)
	maximum = 0.064 (at node 2)
Injected flit rate average = 0.049625
	minimum = 0.032 (at node 8)
	maximum = 0.064 (at node 13)
Accepted flit rate average= 0.048125
	minimum = 0.024 (at node 11)
	maximum = 0.064 (at node 2)
Injected packet length average = 1
Accepted packet length average = 1
Total in-flight flits = 12 (0 measured)
latency change    = 1
throughput change = 1
Class 0:
Packet latency average = 20.1595
	minimum = 7
	maximum = 64
Network latency average = 20.1595
	minimum = 7
	maximum = 64
Slowest packet = 244
Flit latency average = 20.1595
	minimum = 7
	maximum = 64
Slowest flit = 244
Fragmentation average = 0
	minimum = 0
	maximum = 0
Injected packet rate average = 0.048875
	minimum = 0.041 (at node 5)
	maximum = 0.054 (at node 1)
Accepted packet rate average = 0.0481875
	minimum = 0.038 (at node 11)
	maximum = 0.054 (at node 0)
Injected flit rate average = 0.048875
	minimum = 0.041 (at node 5)
	maximum = 0.054 (at node 1)
Accepted flit rate average= 0.0481875
	minimum = 0.038 (at node 11)
	maximum = 0.054 (at node 0)
Injected packet length average = 1
Accepted packet length average = 1
Total in-flight flits = 11 (0 measured)
latency change    = 0.0132166
throughput change = 0.00129702
Class 0:
Packet latency average = 20.5154
	minimum = 7
	maximum = 45
Network latency average = 20.5154
	minimum = 7
	maximum = 45
Slowest packet = 972
Flit latency average = 20.5154
	minimum = 7
	maximum = 45
Slowest flit = 972
Fragmentation average = 0
	minimum = 0
	maximum = 0
Injected packet rate average = 0.05025
	minimum = 0.032 (at node 11)
	maximum = 0.064 (at node 12)
Accepted packet rate average = 0.04875
	minimum = 0.032 (at node 0)
	maximum = 0.064 (at node 7)
Injected flit rate average = 0.05025
	minimum = 0.032 (at node 11)
	maximum = 0.064 (at node 12)
Accepted flit rate average= 0.04875
	minimum = 0.032 (at node 0)
	maximum = 0.064 (at node 7)
Injected packet length average = 1
Accepted packet length average = 1
Total in-flight flits = 23 (0 measured)
latency change    = 0.0173456
throughput change = 0.0115385
Warmed up ...Time used is 1500 cycles
Class 0:
Packet latency average = 20.2314
	minimum = 7
	maximum = 46
Network latency average = 20.2314
	minimum = 7
	maximum = 46
Slowest packet = 1511
Flit latency average = 20.2832
	minimum = 7
	maximum = 46
Slowest flit = 1511
Fragmentation average = 0
	minimum = 0
	maximum = 0
Injected packet rate average = 0.0485
	minimum = 0.036 (at node 9)
	maximum = 0.066 (at node 13)
Accepted packet rate average = 0.049875
	minimum = 0.03 (at node 2)
	maximum = 0.07 (at node 11)
Injected flit rate average = 0.0485
	minimum = 0.036 (at node 9)
	maximum = 0.066 (at node 13)
Accepted flit rate average= 0.049875
	minimum = 0.03 (at node 2)
	maximum = 0.07 (at node 11)
Injected packet length average = 1
Accepted packet length average = 1
Total in-flight flits = 12 (12 measured)
latency change    = 0.0140377
throughput change = 0.0225564
Class 0:
Packet latency average = 19.99
	minimum = 7
	maximum = 46
Network latency average = 19.99
	minimum = 7
	maximum = 46
Slowest packet = 1511
Flit latency average = 20.022
	minimum = 7
	maximum = 46
Slowest flit = 1511
Fragmentation average = 0
	minimum = 0
	maximum = 0
Injected packet rate average = 0.0505625
	minimum = 0.04 (at node 9)
	maximum = 0.064 (at node 13)
Accepted packet rate average = 0.05125
	minimum = 0.036 (at node 2)
	maximum = 0.064 (at node 8)
Injected flit rate average = 0.0505625
	minimum = 0.04 (at node 9)
	maximum = 0.064 (at node 13)
Accepted flit rate average= 0.05125
	minimum = 0.036 (at node 2)
	maximum = 0.064 (at node 8)
Injected packet length average = 1
Accepted packet length average = 1
Total in-flight flits = 12 (12 measured)
latency change    = 0.0120771
throughput change = 0.0268293
Class 0:
Packet latency average = 20.1644
	minimum = 7
	maximum = 48
Network latency average = 20.1644
	minimum = 7
	maximum = 48
Slowest packet = 2104
Flit latency average = 20.1827
	minimum = 7
	maximum = 48
Slowest flit = 2104
Fragmentation average = 0
	minimum = 0
	maximum = 0
Injected packet rate average = 0.0507083
	minimum = 0.044 (at node 9)
	maximum = 0.0566667 (at node 11)
Accepted packet rate average = 0.050625
	minimum = 0.04 (at node 4)
	maximum = 0.0593333 (at node 11)
Injected flit rate average = 0.0507083
	minimum = 0.044 (at node 9)
	maximum = 0.0566667 (at node 11)
Accepted flit rate average= 0.050625
	minimum = 0.04 (at node 4)
	maximum = 0.0593333 (at node 11)
Injected packet length average = 1
Accepted packet length average = 1
Total in-flight flits = 25 (25 measured)
latency change    = 0.00865222
throughput change = 0.0123457
Draining all recorded packets ...
Draining remaining packets ...
Time taken is 3071 cycles
Class 0:
Packet latency average = 20.7215
	minimum = 7
	maximum = 56
Network latency average = 20.7215
	minimum = 7
	maximum = 56
Slowest packet = 2675
Flit latency average = 20.7215
	minimum = 7
	maximum = 56
Slowest flit = 2675
Fragmentation average = 0
	minimum = 0
	maximum = 0
Injected packet rate average = 0.04975
	minimum = 0.04 (at node 0)
	maximum = 0.068 (at node 15)
Accepted packet rate average = 0.047125
	minimum = 0.028 (at node 15)
	maximum = 0.064 (at node 6)
Injected flit rate average = 0.04975
	minimum = 0.04 (at node 0)
	maximum = 0.068 (at node 15)
Accepted flit rate average= 0.047125
	minimum = 0.028 (at node 15)
	maximum = 0.064 (at node 6)
Injected packet length average = 1
Accepted packet length average = 1
Total in-flight flits = 21 (0 measured)
latency change    = 1
throughput change = 1
Class 0:
Packet latency average = 20.5575
	minimum = 7
	maximum = 56
Network latency average = 20.5575
	minimum = 7
	maximum = 56
Slowest packet = 2675
Flit latency average = 20.5575
	minimum = 7
	maximum = 56
Slowest flit = 2675
Fragmentation average = 0
	minimum = 0
	maximum = 0
Injected packet rate average = 0.0478125
	minimum = 0.034 (at node 0)
	maximum = 0.06 (at node 15)
Accepted packet rate average = 0.04675
	minimum = 0.034 (at node 15)
	maximum = 0.06 (at node 6)
Injected flit rate average = 0.0478125
	minimum = 0.034 (at node 0)
	maximum = 0.06 (at node 15)
Accepted flit rate average= 0.04675
	minimum = 0.034 (at node 15)
	maximum = 0.06 (at node 6)
Injected packet length average = 1
Accepted packet length average = 1
Total in-flight flits = 17 (0 measured)
latency change    = 0.00797757
throughput change = 0.00802139
Class 0:
Packet latency average = 19.7627
	minimum = 7
	maximum = 44
Network latency average = 19.7627
	minimum = 7
	maximum = 44
Slowest packet = 3186
Flit latency average = 19.7627
	minimum = 7
	maximum = 44
Slowest flit = 3186
Fragmentation average = 0
	minimum = 0
	maximum = 0
Injected packet rate average = 0.046125
	minimum = 0.034 (at node 7)
	maximum = 0.062 (at node 10)
Accepted packet rate average = 0.046875
	minimum = 0.034 (at node 7)
	maximum = 0.062 (at node 6)
Injected flit rate average = 0.046125
	minimum = 0.034 (at node 7)
	maximum = 0.062 (at node 10)
Accepted flit rate average= 0.046875
	minimum = 0.034 (at node 7)
	maximum = 0.062 (at node 6)
Injected packet length average = 1
Accepted packet length average = 1
Total in-flight flits = 11 (0 measured)
latency change    = 0.0402183
throughput change = 0.00266667
Warmed up ...Time used is 1500 cycles
Class 0:
Packet latency average = 19.9069
	minimum = 7
	maximum = 43
Network latency average = 19.9069
	minimum = 7
	maximum = 43
Slowest packet = 3745
Flit latency average = 20.0465
	minimum = 7
	maximum = 43
Slowest flit = 3745
Fragmentation average = 0
	minimum = 0
	maximum = 0
Injected packet rate average = 0.05
	minimum = 0.036 (at node 0)
	maximum = 0.066 (at node 9)
Accepted packet rate average = 0.048375
	minimum = 0.038 (at node 9)
	maximum = 0.06 (at node 3)
Injected flit rate average = 0.05
	minimum = 0.036 (at node 0)
	maximum = 0.066 (at node 9)
Accepted flit rate average= 0.048375
	minimum = 0.038 (at node 9)
	maximum = 0.06 (at node 3)
Injected packet length average = 1
Accepted packet length average = 1
Total in-flight flits = 24 (24 measured)
latency change    = 0.00724614
throughput change = 0.0310078
Class 0:
Packet latency average = 20.2125
	minimum = 7
	maximum = 43
Network latency average = 20.2125
	minimum = 7
	maximum = 43
Slowest packet = 3745
Flit latency average = 20.2776
	minimum = 7
	maximum = 43
Slowest flit = 3745
Fragmentation average = 0
	minimum = 0
	maximum = 0
Injected packet rate average = 0.049125
	minimum = 0.039 (at node 8)
	maximum = 0.059 (at node 5)
Accepted packet rate average = 0.048625
	minimum = 0.041 (at node 2)
	maximum = 0.059 (at node 3)
Injected flit rate average = 0.049125
	minimum = 0.039 (at node 8)
	maximum = 0.059 (at node 5)
Accepted flit rate average= 0.048625
	minimum = 0.041 (at node 2)
	maximum = 0.059 (at node 3)
Injected packet length average = 1
Accepted packet length average = 1
Total in-flight flits = 19 (19 measured)
latency change    = 0.0151194
throughput change = 0.00514139
Class 0:
Packet latency average = 20.4408
	minimum = 7
	maximum = 60
Network latency average = 20.4408
	minimum = 7
	maximum = 60
Slowest packet = 4343
Flit latency average = 20.482
	minimum = 7
	maximum = 60
Slowest flit = 4343
Fragmentation average = 0
	minimum = 0
	maximum = 0
Injected packet rate average = 0.048875
	minimum = 0.0386667 (at node 6)
	maximum = 0.0593333 (at node 15)
Accepted packet rate average = 0.0486667
	minimum = 0.042 (at node 4)
	maximum = 0.058 (at node 7)
Injected flit rate average = 0.048875
	minimum = 0.0386667 (at node 6)
	maximum = 0.0593333 (at node 15)
Accepted flit rate average= 0.0486667
	minimum = 0.042 (at node 4)
	maximum = 0.058 (at node 7)
Injected packet length average = 1
Accepted packet length average = 1
Total in-flight flits = 16 (16 measured)
latency change    = 0.0111678
throughput change = 0.000856164
Draining all recorded packets ...
Draining remaining packets ...
Time taken is 3061 cycles
Class 0:
Packet latency average = 20.0831
	minimum = 7
	maximum = 44
Network latency average = 20.0831
	minimum = 7
	maximum = 44
Slowest packet = 4809
Flit latency average = 20.0831
	minimum = 7
	maximum = 44
Slowest flit = 4809
Fragmentation average = 0
	minimum = 0
	maximum = 0
Injected packet rate average = 0.05475
	minimum = 0.04 (at node 4)
	maximum = 0.07 (at node 3)
Accepted packet rate average = 0.052625
	minimum = 0.036 (at node 6)
	maximum = 0.07 (at node 14)
Injected flit rate average = 0.05475
	minimum = 0.04 (at node 4)
	maximum = 0.07 (at node 3)
Accepted flit rate average= 0.052625
	minimum = 0.036 (at node 6)
	maximum = 0.07 (at node 14)
Injected packet length average = 1
Accepted packet length average = 1
Total in-flight flits = 17 (0 measured)
latency change    = 1
throughput change = 1
Class 0:
Packet latency average = 20.1856
	minimum = 7
	maximum = 60
Network latency average = 20.1856
	minimum = 7
	maximum = 60
Slowest packet = 5532
Flit latency average = 20.1856
	minimum = 7
	maximum = 60
Slowest flit = 5532
Fragmentation average = 0
	minimum = 0
	maximum = 0
Injected packet rate average = 0.0508125
	minimum = 0.037 (at node 4)
	maximum = 0.064 (at node 13)
Accepted packet rate average = 0.0501875
	minimum = 0.038 (at node 2)
	maximum = 0.061 (at node 7)
Injected flit rate average = 0.0508125
	minimum = 0.037 (at node 4)
	maximum = 0.064 (at node 13)
Accepted flit rate average= 0.0501875
	minimum = 0.038 (at node 2)
	maximum = 0.061 (at node 7)
Injected packet length average = 1
Accepted packet length average = 1
Total in-flight flits = 10 (0 measured)
latency change    = 0.00507387
throughput change = 0.0485679
Class 0:
Packet latency average = 19.6788
	minimum = 7
	maximum = 45
Network latency average = 19.6788
	minimum = 7
	maximum = 45
Slowest packet = 5614
Flit latency average = 19.6788
	minimum = 7
	maximum = 45
Slowest flit = 5614
Fragmentation average = 0
	minimum = 0
	maximum = 0
Injected packet rate average = 0.053
	minimum = 0.036 (at node 12)
	maximum = 0.068 (at node 6)
Accepted packet rate average = 0.051375
	minimum = 0.024 (at node 13)
	maximum = 0.066 (at node 8)
Injected flit rate average = 0.053
	minimum = 0.036 (at node 12)
	maximum = 0.068 (at node 6)
Accepted flit rate average= 0.051375
	minimum = 0.024 (at node 13)
	maximum = 0.066 (at node 8)
Injected packet length average = 1
Accepted packet length average = 1
Total in-flight flits = 23 (0 measured)
latency change    = 0.0257496
throughput change = 0.0231144
Warmed up ...Time used is 1500 cycles
Class 0:
Packet latency average = 20.8474
	minimum = 7
	maximum = 54
Network latency average = 20.8474
	minimum = 7
	maximum = 54
Slowest packet = 6340
Flit latency average = 21.1154
	minimum = 7
	maximum = 54
Slowest flit = 6340
Fragmentation average = 0
	minimum = 0
	maximum = 0
Injected packet rate average = 0.047625
	minimum = 0.034 (at node 10)
	maximum = 0.058 (at node 3)
Accepted packet rate average = 0.04875
	minimum = 0.036 (at node 11)
	maximum = 0.062 (at node 7)
Injected flit rate average = 0.047625
	minimum = 0.034 (at node 10)
	maximum = 0.058 (at node 3)
Accepted flit rate average= 0.04875
	minimum = 0.036 (at node 11)
	maximum = 0.062 (at node 7)
Injected packet length average = 1
Accepted packet length average = 1
Total in-flight flits = 14 (14 measured)
latency change    = 0.0560539
throughput change = 0.0538462
Class 0:
Packet latency average = 20.4302
	minimum = 7
	maximum = 54
Network latency average = 20.4302
	minimum = 7
	maximum = 54
Slowest packet = 6340
Flit latency average = 20.5734
	minimum = 7
	maximum = 54
Slowest flit = 6340
Fragmentation average = 0
	minimum = 0
	maximum = 0
Injected packet rate average = 0.049625
	minimum = 0.04 (at node 10)
	maximum = 0.058 (at node 1)
Accepted packet rate average = 0.0498125
	minimum = 0.042 (at node 3)
	maximum = 0.062 (at node 2)
Injected flit rate average = 0.049625
	minimum = 0.04 (at node 10)
	maximum = 0.058 (at node 1)
Accepted flit rate average= 0.0498125
	minimum = 0.042 (at node 3)
	maximum = 0.062 (at node 2)
Injected packet length average = 1
Accepted packet length average = 1
Total in-flight flits = 20 (20 measured)
latency change    = 0.0204197
throughput change = 0.02133
Class 0:
Packet latency average = 20.4778
	minimum = 7
	maximum = 54
Network latency average = 20.4778
	minimum = 7
	maximum = 54
Slowest packet = 6340
Flit latency average = 20.5707
	minimum = 7
	maximum = 54
Slowest flit = 6340
Fragmentation average = 0
	minimum = 0
	maximum = 0
Injected packet rate average = 0.0503333
	minimum = 0.0413333 (at node 13)
	maximum = 0.0613333 (at node 6)
Accepted packet rate average = 0.0506667
	minimum = 0.0453333 (at node 14)
	maximum = 0.062 (at node 8)
Injected flit rate average = 0.0503333
	minimum = 0.0413333 (at node 13)
	maximum = 0.0613333 (at node 6)
Accepted flit rate average= 0.0506667
	minimum = 0.0453333 (at node 14)
	maximum = 0.062 (at node 8)
Injected packet length average = 1
Accepted packet length average = 1
Total in-flight flits = 15 (15 measured)
latency change    = 0.00232225
throughput change = 0.0168586
Class 0:
Packet latency average = 20.4425
	minimum = 7
	maximum = 54
Network latency average = 20.4425
	minimum = 7
	maximum = 54
Slowest packet = 6340
Flit latency average = 20.5138
	minimum = 7
	maximum = 54
Slowest flit = 6340
Fragmentation average = 0
	minimum = 0
	maximum = 0
Injected packet rate average = 0.0495
	minimum = 0.041 (at node 13)
	maximum = 0.057 (at node 6)
Accepted packet rate average = 0.049875
	minimum = 0.0445 (at node 3)
	maximum = 0.061 (at node 8)
Injected flit rate average = 0.0495
	minimum = 0.041 (at node 13)
	maximum = 0.057 (at node 6)
Accepted flit rate average= 0.049875
	minimum = 0.0445 (at node 3)
	maximum = 0.061 (at node 8)
Injected packet length average = 1
Accepted packet length average = 1
Total in-flight flits = 11 (11 measured)
latency change    = 0.0017278
throughput change = 0.015873
Draining all recorded packets ...
Draining remaining packets ...
Time taken is 3563 cycles
Class 0:
Packet latency average = 19.9802
	minimum = 7
	maximum = 47
Network latency average = 19.9802
	minimum = 7
	maximum = 47
Slowest packet = 7764
Flit latency average = 19.9802
	minimum = 7
	maximum = 47
Slowest flit = 7764
Fragmentation average = 0
	minimum = 0
	maximum = 0
Injected packet rate average = 0.047
	minimum = 0.034 (at node 0)
	maximum = 0.056 (at node 12)
Accepted packet rate average = 0.044125
	minimum = 0.026 (at node 6)
	maximum = 0.062 (at node 12)
Injected flit rate average = 0.047
	minimum = 0.034 (at node 0)
	maximum = 0.056 (at node 12)
Accepted flit rate average= 0.044125
	minimum = 0.026 (at node 6)
	maximum = 0.062 (at node 12)
Injected packet length average = 1
Accepted packet length average = 1
Total in-flight flits = 23 (0 measured)
latency change    = 1
throughput change = 1
Class 0:
Packet latency average = 19.9764
	minimum = 7
	maximum = 47
Network latency average = 19.9764
	minimum = 7
	maximum = 47
Slowest packet = 7764
Flit latency average = 19.9764
	minimum = 7
	maximum = 47
Slowest flit = 7764
Fragmentation average = 0
	minimum = 0
	maximum = 0
Injected packet rate average = 0.0485625
	minimum = 0.039 (at node 1)
	maximum = 0.058 (at node 11)
Accepted packet rate average = 0.0476875
	minimum = 0.032 (at node 4)
	maximum = 0.061 (at node 3)
Injected flit rate average = 0.0485625
	minimum = 0.039 (at node 1)
	maximum = 0.058 (at node 11)
Accepted flit rate average= 0.0476875
	minimum = 0.032 (at node 4)
	maximum = 0.061 (at node 3)
Injected packet length average = 1
Accepted packet length average = 1
Total in-flight flits = 14 (0 measured)
latency change    = 0.000188275
throughput change = 0.0747051
Class 0:
Packet latency average = 19.3061
	minimum = 7
	maximum = 40
Network latency average = 19.3061
	minimum = 7
	maximum = 40
Slowest packet = 8576
Flit latency average = 19.3061
	minimum = 7
	maximum = 40
Slowest flit = 8576
Fragmentation average = 0
	minimum = 0
	maximum = 0
Injected packet rate average = 0.047875
	minimum = 0.036 (at node 3)
	maximum = 0.064 (at node 9)
Accepted packet rate average = 0.047375
	minimum = 0.032 (at node 10)
	maximum = 0.07 (at node 2)
Injected flit rate average = 0.047875
	minimum = 0.036 (at node 3)
	maximum = 0.064 (at node 9)
Accepted flit rate average= 0.047375
	minimum = 0.032 (at node 10)
	maximum = 0.07 (at node 2)
Injected packet length average = 1
Accepted packet length average = 1
Total in-flight flits = 18 (0 measured)
latency change    = 0.0347217
throughput change = 0.00659631
Warmed up ...Time used is 1500 cycles
Class 0:
Packet latency average = 20.949
	minimum = 7
	maximum = 54
Network latency average = 20.949
	minimum = 7
	maximum = 54
Slowest packet = 8800
Flit latency average = 21.1395
	minimum = 7
	maximum = 54
Slowest flit = 8800
Fragmentation average = 0
	minimum = 0
	maximum = 0
Injected packet rate average = 0.054
	minimum = 0.038 (at node 3)
	maximum = 0.082 (at node 0)
Accepted packet rate average = 0.05375
	minimum = 0.038 (at node 12)
	maximum = 0.08 (at node 0)
Injected flit rate average = 0.054
	minimum = 0.038 (at node 3)
	maximum = 0.082 (at node 0)
Accepted flit rate average= 0.05375
	minimum = 0.038 (at node 12)
	maximum = 0.08 (at node 0)
Injected packet length average = 1
Accepted packet length average = 1
Total in-flight flits = 20 (20 measured)
latency change    = 0.0784266
throughput change = 0.118605
Class 0:
Packet latency average = 21.1556
	minimum = 7
	maximum = 64
Network latency average = 21.1348
	minimum = 7
	maximum = 64
Slowest packet = 9549
Flit latency average = 21.229
	minimum = 7
	maximum = 64
Slowest flit = 9549
Fragmentation average = 0
	minimum = 0
	maximum = 0
Injected packet rate average = 0.051875
	minimum = 0.039 (at node 14)
	maximum = 0.073 (at node 0)
Accepted packet rate average = 0.052125
	minimum = 0.042 (at node 9)
	maximum = 0.063 (at node 0)
Injected flit rate average = 0.051875
	minimum = 0.039 (at node 14)
	maximum = 0.073 (at node 0)
Accepted flit rate average= 0.052125
	minimum = 0.042 (at node 9)
	maximum = 0.063 (at node 0)
Injected packet length average = 1
Accepted packet length average = 1
Total in-flight flits = 14 (14 measured)
latency change    = 0.0097661
throughput change = 0.0311751
Class 0:
Packet latency average = 20.7758
	minimum = 7
	maximum = 64
Network latency average = 20.7621
	minimum = 7
	maximum = 64
Slowest packet = 9549
Flit latency average = 20.8299
	minimum = 7
	maximum = 64
Slowest flit = 9549
Fragmentation average = 0
	minimum = 0
	maximum = 0
Injected packet rate average = 0.0522917
	minimum = 0.04 (at node 14)
	maximum = 0.0666667 (at node 0)
Accepted packet rate average = 0.0524167
	minimum = 0.0453333 (at node 9)
	maximum = 0.0626667 (at node 10)
Injected flit rate average = 0.0522917
	minimum = 0.04 (at node 14)
	maximum = 0.0666667 (at node 0)
Accepted flit rate average= 0.0524167
	minimum = 0.0453333 (at node 9)
	maximum = 0.0626667 (at node 10)
Injected packet length average = 1
Accepted packet length average = 1
Total in-flight flits = 15 (15 measured)
latency change    = 0.0182824
throughput change = 0.00556439
Class 0:
Packet latency average = 20.5789
	minimum = 7
	maximum = 64
Network latency average = 20.5686
	minimum = 7
	maximum = 64
Slowest packet = 9549
Flit latency average = 20.6216
	minimum = 7
	maximum = 64
Slowest flit = 9549
Fragmentation average = 0
	minimum = 0
	maximum = 0
Injected packet rate average = 0.0524063
	minimum = 0.042 (at node 14)
	maximum = 0.0635 (at node 0)
Accepted packet rate average = 0.0522813
	minimum = 0.046 (at node 9)
	maximum = 0.06 (at node 10)
Injected flit rate average = 0.0524063
	minimum = 0.042 (at node 14)
	maximum = 0.0635 (at node 0)
Accepted flit rate average= 0.0522813
	minimum = 0.046 (at node 9)
	maximum = 0.06 (at node 10)
Injected packet length average = 1
Accepted packet length average = 1
Total in-flight flits = 22 (22 measured)
latency change    = 0.00957072
throughput change = 0.00259016
Draining all recorded packets ...
Draining remaining packets ...
Time taken is 3566 cycles
Class 0:
Packet latency average = 20.3357
	minimum = 7
	maximum = 49
Network latency average = 20.3357
	minimum = 7
	maximum = 49
Slowest packet = 10826
Flit latency average = 20.3357
	minimum = 7
	maximum = 49
Slowest flit = 10826
Fragmentation average = 0
	minimum = 0
	maximum = 0
Injected packet rate average = 0.05475
	minimum = 0.032 (at node 4)
	maximum = 0.08 (at node 10)
Accepted packet rate average = 0.052875
	minimum = 0.04 (at node 0)
	maximum = 0.066 (at node 11)
Injected flit rate average = 0.05475
	minimum = 0.032 (at node 4)
	maximum = 0.08 (at node 10)
Accepted flit rate average= 0.052875
	minimum = 0.04 (at node 0)
	maximum = 0.066 (at node 11)
Injected packet length average = 1
Accepted packet length average = 1
Total in-flight flits = 15 (0 measured)
latency change    = 1
throughput change = 1
Class 0:
Packet latency average = 20.0854
	minimum = 7
	maximum = 50
Network latency average = 20.0854
	minimum = 7
	maximum = 50
Slowest packet = 11245
Flit latency average = 20.0854
	minimum = 7
	maximum = 50
Slowest flit = 11245
Fragmentation average = 0
	minimum = 0
	maximum = 0
Injected packet rate average = 0.053125
	minimum = 0.041 (at node 4)
	maximum = 0.07 (at node 11)
Accepted packet rate average = 0.0519375
	minimum = 0.038 (at node 0)
	maximum = 0.064 (at node 5)
Injected flit rate average = 0.053125
	minimum = 0.041 (at node 4)
	maximum = 0.07 (at node 11)
Accepted flit rate average= 0.0519375
	minimum = 0.038 (at node 0)
	maximum = 0.064 (at node 5)
Injected packet length average = 1
Accepted packet length average = 1
Total in-flight flits = 19 (0 measured)
latency change    = 0.0124597
throughput change = 0.0180505
Class 0:
Packet latency average = 20.3869
	minimum = 7
	maximum = 65
Network latency average = 20.3869
	minimum = 7
	maximum = 65
Slowest packet = 11365
Flit latency average = 20.3869
	minimum = 7
	maximum = 65
Slowest flit = 11365
Fragmentation average = 0
	minimum = 0
	maximum = 0
Injected packet rate average = 0.048625
	minimum = 0.034 (at node 6)
	maximum = 0.066 (at node 10)
Accepted packet rate average = 0.04975
	minimum = 0.024 (at node 4)
	maximum = 0.07 (at node 9)
Injected flit rate average = 0.048625
	minimum = 0.034 (at node 6)
	maximum = 0.066 (at node 10)
Accepted flit rate average= 0.04975
	minimum = 0.024 (at node 4)
	maximum = 0.07 (at node 9)
Injected packet length average = 1
Accepted packet length average = 1
Total in-flight flits = 10 (0 measured)
latency change    = 0.0147887
throughput change = 0.0439698
Warmed up ...Time used is 1500 cycles
Class 0:
Packet latency average = 20.4649
	minimum = 7
	maximum = 55
Network latency average = 20.4649
	minimum = 7
	maximum = 55
Slowest packet = 11924
Flit latency average = 20.5722
	minimum = 7
	maximum = 55
Slowest flit = 11924
Fragmentation average = 0
	minimum = 0
	maximum = 0
Injected packet rate average = 0.049625
	minimum = 0.034 (at node 9)
	maximum = 0.064 (at node 2)
Accepted packet rate average = 0.049375
	minimum = 0.032 (at node 8)
	maximum = 0.068 (at node 0)
Injected flit rate average = 0.049625
	minimum = 0.034 (at node 9)
	maximum = 0.064 (at node 2)
Accepted flit rate average= 0.049375
	minimum = 0.032 (at node 8)
	maximum = 0.068 (at node 0)
Injected packet length average = 1
Accepted packet length average = 1
Total in-flight flits = 12 (12 measured)
latency change    = 0.00381142
throughput change = 0.00759494
Class 0:
Packet latency average = 20.2093
	minimum = 7
	maximum = 55
Network latency average = 20.2093
	minimum = 7
	maximum = 55
Slowest packet = 11924
Flit latency average = 20.2666
	minimum = 7
	maximum = 55
Slowest flit = 11924
Fragmentation average = 0
	minimum = 0
	maximum = 0
Injected packet rate average = 0.04925
	minimum = 0.038 (at node 12)
	maximum = 0.061 (at node 15)
Accepted packet rate average = 0.049
	minimum = 0.037 (at node 8)
	maximum = 0.062 (at node 0)
Injected flit rate average = 0.04925
	minimum = 0.038 (at node 12)
	maximum = 0.061 (at node 15)
Accepted flit rate average= 0.049
	minimum = 0.037 (at node 8)
	maximum = 0.062 (at node 0)
Injected packet length average = 1
Accepted packet length average = 1
Total in-flight flits = 14 (14 measured)
latency change    = 0.0126493
throughput change = 0.00765306
Class 0:
Packet latency average = 20.16
	minimum = 7
	maximum = 55
Network latency average = 20.16
	minimum = 7
	maximum = 55
Slowest packet = 11924
Flit latency average = 20.1982
	minimum = 7
	maximum = 55
Slowest flit = 11924
Fragmentation average = 0
	minimum = 0
	maximum = 0
Injected packet rate average = 0.049625
	minimum = 0.038 (at node 0)
	maximum = 0.0593333 (at node 15)
Accepted packet rate average = 0.049625
	minimum = 0.0393333 (at node 12)
	maximum = 0.062 (at node 0)
Injected flit rate average = 0.049625
	minimum = 0.038 (at node 0)
	maximum = 0.0593333 (at node 15)
Accepted flit rate average= 0.049625
	minimum = 0.0393333 (at node 12)
	maximum = 0.062 (at node 0)
Injected packet length average = 1
Accepted packet length average = 1
Total in-flight flits = 10 (10 measured)
latency change    = 0.00244387
throughput change = 0.0125945
Draining all recorded packets ...
Draining remaining packets ...
Time taken is 3047 cycles
Class 0:
Packet latency average = 19.1543
	minimum = 7
	maximum = 43
Network latency average = 19.1543
	minimum = 7
	maximum = 43
Slowest packet = 13228
Flit latency average = 19.1543
	minimum = 7
	maximum = 43
Slowest flit = 13228
Fragmentation average = 0
	minimum = 0
	maximum = 0
Injected packet rate average = 0.046625
	minimum = 0.028 (at node 13)
	maximum = 0.062 (at node 5)
Accepted packet rate average = 0.045375
	minimum = 0.032 (at node 11)
	maximum = 0.058 (at node 6)
Injected flit rate average = 0.046625
	minimum = 0.028 (at node 13)
	maximum = 0.062 (at node 5)
Accepted flit rate average= 0.045375
	minimum = 0.032 (at node 11)
	maximum = 0.058 (at node 6)
Injected packet length average = 1
Accepted packet length average = 1
Total in-flight flits = 10 (0 measured)
latency change    = 1
throughput change = 1
Class 0:
Packet latency average = 19.6568
	minimum = 7
	maximum = 55
Network latency average = 19.6568
	minimum = 7
	maximum = 55
Slowest packet = 13279
Flit latency average = 19.6568
	minimum = 7
	maximum = 55
Slowest flit = 13279
Fragmentation average = 0
	minimum = 0
	maximum = 0
Injected packet rate average = 0.0495625
	minimum = 0.041 (at node 7)
	maximum = 0.058 (at node 0)
Accepted packet rate average = 0.0484375
	minimum = 0.035 (at node 2)
	maximum = 0.06 (at node 10)
Injected flit rate average = 0.0495625
	minimum = 0.041 (at node 7)
	maximum = 0.058 (at node 0)
Accepted flit rate average= 0.0484375
	minimum = 0.035 (at node 2)
	maximum = 0.06 (at node 10)
Injected packet length average = 1
Accepted packet length average = 1
Total in-flight flits = 18 (0 measured)
latency change    = 0.0255639
throughput change = 0.0632258
Class 0:
Packet latency average = 19.8162
	minimum = 7
	maximum = 48
Network latency average = 19.8162
	minimum = 7
	maximum = 48
Slowest packet = 14031
Flit latency average = 19.8162
	minimum = 7
	maximum = 48
Slowest flit = 14031
Fragmentation average = 0
	minimum = 0
	maximum = 0
Injected packet rate average = 0.044375
	minimum = 0.032 (at node 15)
	maximum = 0.062 (at node 12)
Accepted packet rate average = 0.044875
	minimum = 0.024 (at node 14)
	maximum = 0.062 (at node 15)
Injected flit rate average = 0.044375
	minimum = 0.032 (at node 15)
	maximum = 0.062 (at node 12)
Accepted flit rate average= 0.044875
	minimum = 0.024 (at node 14)
	maximum = 0.062 (at node 15)
Injected packet length average = 1
Accepted packet length average = 1
Total in-flight flits = 14 (0 measured)
latency change    = 0.00804302
throughput change = 0.0793872
Warmed up ...Time used is 1500 cycles
Class 0:
Packet latency average = 20.5052
	minimum = 7
	maximum = 49
Network latency average = 20.5052
	minimum = 7
	maximum = 49
Slowest packet = 14431
Flit latency average = 20.5808
	minimum = 7
	maximum = 49
Slowest flit = 14431
Fragmentation average = 0
	minimum = 0
	maximum = 0
Injected packet rate average = 0.05
	minimum = 0.03 (at node 10)
	maximum = 0.076 (at node 14)
Accepted packet rate average = 0.0495
	minimum = 0.03 (at node 14)
	maximum = 0.082 (at node 13)
Injected flit rate average = 0.05
	minimum = 0.03 (at node 10)
	maximum = 0.076 (at node 14)
Accepted flit rate average= 0.0495
	minimum = 0.03 (at node 14)
	maximum = 0.082 (at node 13)
Injected packet length average = 1
Accepted packet length average = 1
Total in-flight flits = 18 (18 measured)
latency change    = 0.0336051
throughput change = 0.0934343
Class 0:
Packet latency average = 20.285
	minimum = 7
	maximum = 49
Network latency average = 20.285
	minimum = 7
	maximum = 49
Slowest packet = 14431
Flit latency average = 20.3252
	minimum = 7
	maximum = 49
Slowest flit = 14431
Fragmentation average = 0
	minimum = 0
	maximum = 0
Injected packet rate average = 0.051625
	minimum = 0.04 (at node 6)
	maximum = 0.062 (at node 7)
Accepted packet rate average = 0.0513125
	minimum = 0.037 (at node 14)
	maximum = 0.07 (at node 13)
Injected flit rate average = 0.051625
	minimum = 0.04 (at node 6)
	maximum = 0.062 (at node 7)
Accepted flit rate average= 0.0513125
	minimum = 0.037 (at node 14)
	maximum = 0.07 (at node 13)
Injected packet length average = 1
Accepted packet length average = 1
Total in-flight flits = 19 (19 measured)
latency change    = 0.0108568
throughput change = 0.0353228
Class 0:
Packet latency average = 20.5396
	minimum = 7
	maximum = 49
Network latency average = 20.5396
	minimum = 7
	maximum = 49
Slowest packet = 14431
Flit latency average = 20.5634
	minimum = 7
	maximum = 49
Slowest flit = 14431
Fragmentation average = 0
	minimum = 0
	maximum = 0
Injected packet rate average = 0.0515
	minimum = 0.0433333 (at node 5)
	maximum = 0.0606667 (at node 4)
Accepted packet rate average = 0.051625
	minimum = 0.0393333 (at node 6)
	maximum = 0.064 (at node 13)
Injected flit rate average = 0.0515
	minimum = 0.0433333 (at node 5)
	maximum = 0.0606667 (at node 4)
Accepted flit rate average= 0.051625
	minimum = 0.0393333 (at node 6)
	maximum = 0.064 (at node 13)
Injected packet length average = 1
Accepted packet length average = 1
Total in-flight flits = 11 (11 measured)
latency change    = 0.0123949
throughput change = 0.00605327
Class 0:
Packet latency average = 20.4254
	minimum = 7
	maximum = 49
Network latency average = 20.4242
	minimum = 7
	maximum = 49
Slowest packet = 14431
Flit latency average = 20.4432
	minimum = 7
	maximum = 49
Slowest flit = 14431
Fragmentation average = 0
	minimum = 0
	maximum = 0
Injected packet rate average = 0.0515313
	minimum = 0.0415 (at node 5)
	maximum = 0.06 (at node 7)
Accepted packet rate average = 0.051125
	minimum = 0.04 (at node 6)
	maximum = 0.061 (at node 13)
Injected flit rate average = 0.0515313
	minimum = 0.0415 (at node 5)
	maximum = 0.06 (at node 7)
Accepted flit rate average= 0.051125
	minimum = 0.04 (at node 6)
	maximum = 0.061 (at node 13)
Injected packet length average = 1
Accepted packet length average = 1
Total in-flight flits = 27 (27 measured)
latency change    = 0.00559064
throughput change = 0.00977995
Draining all recorded packets ...
Draining remaining packets ...
Time taken is 3559 cycles
Class 0:
Packet latency average = 20.4946
	minimum = 7
	maximum = 57
Network latency average = 20.4946
	minimum = 7
	maximum = 57
Slowest packet = 16028
Flit latency average = 20.4946
	minimum = 7
	maximum = 57
Slowest flit = 16028
Fragmentation average = 0
	minimum = 0
	maximum = 0
Injected packet rate average = 0.049
	minimum = 0.04 (at node 11)
	maximum = 0.058 (at node 1)
Accepted packet rate average = 0.0465
	minimum = 0.032 (at node 10)
	maximum = 0.058 (at node 4)
Injected flit rate average = 0.049
	minimum = 0.04 (at node 11)
	maximum = 0.058 (at node 1)
Accepted flit rate average= 0.0465
	minimum = 0.032 (at node 10)
	maximum = 0.058 (at node 4)
Injected packet length average = 1
Accepted packet length average = 1
Total in-flight flits = 20 (0 measured)
latency change    = 1
throughput change = 1
Class 0:
Packet latency average = 21.6774
	minimum = 7
	maximum = 125
Network latency average = 21.6749
	minimum = 7
	maximum = 125
Slowest packet = 16258
Flit latency average = 21.6749
	minimum = 7
	maximum = 125
Slowest flit = 16258
Fragmentation average = 0
	minimum = 0
	maximum = 0
Injected packet rate average = 0.052
	minimum = 0.04 (at node 15)
	maximum = 0.06 (at node 7)
Accepted packet rate average = 0.0505625
	minimum = 0.036 (at node 9)
	maximum = 0.067 (at node 6)
Injected flit rate average = 0.052
	minimum = 0.04 (at node 15)
	maximum = 0.06 (at node 7)
Accepted flit rate average= 0.0505625
	minimum = 0.036 (at node 9)
	maximum = 0.067 (at node 6)
Injected packet length average = 1
Accepted packet length average = 1
Total in-flight flits = 23 (0 measured)
latency change    = 0.0545618
throughput change = 0.0803461
Class 0:
Packet latency average = 20.5745
	minimum = 7
	maximum = 47
Network latency average = 20.5745
	minimum = 7
	maximum = 47
Slowest packet = 16773
Flit latency average = 20.5745
	minimum = 7
	maximum = 47
Slowest flit = 16773
Fragmentation average = 0
	minimum = 0
	maximum = 0
Injected packet rate average = 0.051375
	minimum = 0.026 (at node 5)
	maximum = 0.078 (at node 9)
Accepted packet rate average = 0.052
	minimum = 0.034 (at node 4)
	maximum = 0.064 (at node 1)
Injected flit rate average = 0.051375
	minimum = 0.026 (at node 5)
	maximum = 0.078 (at node 9)
Accepted flit rate average= 0.052
	minimum = 0.034 (at node 4)
	maximum = 0.064 (at node 1)
Injected packet length average = 1
Accepted packet length average = 1
Total in-flight flits = 18 (0 measured)
latency change    = 0.0536032
throughput change = 0.0276442
Warmed up ...Time used is 1500 cycles
Class 0:
Packet latency average = 20.8055
	minimum = 7
	maximum = 49
Network latency average = 20.8055
	minimum = 7
	maximum = 49
Slowest packet = 17121
Flit latency average = 20.957
	minimum = 7
	maximum = 49
Slowest flit = 17121
Fragmentation average = 0
	minimum = 0
	maximum = 0
Injected packet rate average = 0.052625
	minimum = 0.032 (at node 11)
	maximum = 0.07 (at node 5)
Accepted packet rate average = 0.052375
	minimum = 0.042 (at node 9)
	maximum = 0.064 (at node 4)
Injected flit rate average = 0.052625
	minimum = 0.032 (at node 11)
	maximum = 0.07 (at node 5)
Accepted flit rate average= 0.052375
	minimum = 0.042 (at node 9)
	maximum = 0.064 (at node 4)
Injected packet length average = 1
Accepted packet length average = 1
Total in-flight flits = 20 (20 measured)
latency change    = 0.0111013
throughput change = 0.0071599
Class 0:
Packet latency average = 20.2939
	minimum = 7
	maximum = 49
Network latency average = 20.2939
	minimum = 7
	maximum = 49
Slowest packet = 17121
Flit latency average = 20.3825
	minimum = 7
	maximum = 49
Slowest flit = 17121
Fragmentation average = 0
	minimum = 0
	maximum = 0
Injected packet rate average = 0.0509375
	minimum = 0.038 (at node 11)
	maximum = 0.064 (at node 13)
Accepted packet rate average = 0.0513125
	minimum = 0.038 (at node 9)
	maximum = 0.064 (at node 4)
Injected flit rate average = 0.0509375
	minimum = 0.038 (at node 11)
	maximum = 0.064 (at node 13)
Accepted flit rate average= 0.0513125
	minimum = 0.038 (at node 9)
	maximum = 0.064 (at node 4)
Injected packet length average = 1
Accepted packet length average = 1
Total in-flight flits = 12 (12 measured)
latency change    = 0.025209
throughput change = 0.0207065
Class 0:
Packet latency average = 20.5414
	minimum = 7
	maximum = 51
Network latency average = 20.5414
	minimum = 7
	maximum = 51
Slowest packet = 18075
Flit latency average = 20.5966
	minimum = 7
	maximum = 51
Slowest flit = 18075
Fragmentation average = 0
	minimum = 0
	maximum = 0
Injected packet rate average = 0.0512917
	minimum = 0.0446667 (at node 1)
	maximum = 0.0606667 (at node 13)
Accepted packet rate average = 0.0515417
	minimum = 0.0426667 (at node 9)
	maximum = 0.0586667 (at node 3)
Injected flit rate average = 0.0512917
	minimum = 0.0446667 (at node 1)
	maximum = 0.0606667 (at node 13)
Accepted flit rate average= 0.0515417
	minimum = 0.0426667 (at node 9)
	maximum = 0.0586667 (at node 3)
Injected packet length average = 1
Accepted packet length average = 1
Total in-flight flits = 12 (12 measured)
latency change    = 0.0120503
throughput change = 0.00444624
Draining all recorded packets ...
Draining remaining packets ...
Time taken is 3046 cycles
Class 0:
Packet latency average = 20.4859
	minimum = 7
	maximum = 42
Network latency average = 20.4859
	minimum = 7
	maximum = 42
Slowest packet = 18255
Flit latency average = 20.4859
	minimum = 7
	maximum = 42
Slowest flit = 18255
Fragmentation average = 0
	minimum = 0
	maximum = 0
Injected packet rate average = 0.051125
	minimum = 0.038 (at node 2)
	maximum = 0.064 (at node 7)
Accepted packet rate average = 0.048625
	minimum = 0.03 (at node 2)
	maximum = 0.068 (at node 11)
Injected flit rate average = 0.051125
	minimum = 0.038 (at node 2)
	maximum = 0.064 (at node 7)
Accepted flit rate average= 0.048625
	minimum = 0.03 (at node 2)
	maximum = 0.068 (at node 11)
Injected packet length average = 1
Accepted packet length average = 1
Total in-flight flits = 20 (0 measured)
latency change    = 1
throughput change = 1
Class 0:
Packet latency average = 20.6365
	minimum = 7
	maximum = 50
Network latency average = 20.6365
	minimum = 7
	maximum = 50
Slowest packet = 18639
Flit latency average = 20.6365
	minimum = 7
	maximum = 50
Slowest flit = 18639
Fragmentation average = 0
	minimum = 0
	maximum = 0
Injected packet rate average = 0.04725
	minimum = 0.039 (at node 0)
	maximum = 0.058 (at node 10)
Accepted packet rate average = 0.04625
	minimum = 0.035 (at node 2)
	maximum = 0.069 (at node 11)
Injected flit rate average = 0.04725
	minimum = 0.039 (at node 0)
	maximum = 0.058 (at node 10)
Accepted flit rate average= 0.04625
	minimum = 0.035 (at node 2)
	maximum = 0.069 (at node 11)
Injected packet length average = 1
Accepted packet length average = 1
Total in-flight flits = 16 (0 measured)
latency change    = 0.00729898
throughput change = 0.0513514
Class 0:
Packet latency average = 20.1079
	minimum = 7
	maximum = 46
Network latency average = 20.1079
	minimum = 7
	maximum = 46
Slowest packet = 19003
Flit latency average = 20.1079
	minimum = 7
	maximum = 46
Slowest flit = 19003
Fragmentation average = 0
	minimum = 0
	maximum = 0
Injected packet rate average = 0.052
	minimum = 0.04 (at node 6)
	maximum = 0.066 (at node 3)
Accepted packet rate average = 0.052125
	minimum = 0.032 (at node 12)
	maximum = 0.066 (at node 4)
Injected flit rate average = 0.052
	minimum = 0.04 (at node 6)
	maximum = 0.066 (at node 3)
Accepted flit rate average= 0.052125
	minimum = 0.032 (at node 12)
	maximum = 0.066 (at node 4)
Injected packet length average = 1
Accepted packet length average = 1
Total in-flight flits = 15 (0 measured)
latency change    = 0.0262868
throughput change = 0.11271
Warmed up ...Time used is 1500 cycles
Class 0:
Packet latency average = 19.3376
	minimum = 7
	maximum = 41
Network latency average = 19.3376
	minimum = 7
	maximum = 41
Slowest packet = 19537
Flit latency average = 19.555
	minimum = 7
	maximum = 41
Slowest flit = 19537
Fragmentation average = 0
	minimum = 0
	maximum = 0
Injected packet rate average = 0.051125
	minimum = 0.038 (at node 14)
	maximum = 0.064 (at node 12)
Accepted packet rate average = 0.051125
	minimum = 0.038 (at node 11)
	maximum = 0.066 (at node 9)
Injected flit rate average = 0.051125
	minimum = 0.038 (at node 14)
	maximum = 0.064 (at node 12)
Accepted flit rate average= 0.051125
	minimum = 0.038 (at node 11)
	maximum = 0.066 (at node 9)
Injected packet length average = 1
Accepted packet length average = 1
Total in-flight flits = 15 (15 measured)
latency change    = 0.039837
throughput change = 0.0195599
Class 0:
Packet latency average = 19.6939
	minimum = 7
	maximum = 49
Network latency average = 19.6939
	minimum = 7
	maximum = 49
Slowest packet = 20038
Flit latency average = 19.7968
	minimum = 7
	maximum = 49
Slowest flit = 20038
Fragmentation average = 0
	minimum = 0
	maximum = 0
Injected packet rate average = 0.050625
	minimum = 0.033 (at node 15)
	maximum = 0.064 (at node 13)
Accepted packet rate average = 0.05075
	minimum = 0.041 (at node 10)
	maximum = 0.064 (at node 4)
Injected flit rate average = 0.050625
	minimum = 0.033 (at node 15)
	maximum = 0.064 (at node 13)
Accepted flit rate average= 0.05075
	minimum = 0.041 (at node 10)
	maximum = 0.064 (at node 4)
Injected packet length average = 1
Accepted packet length average = 1
Total in-flight flits = 13 (13 measured)
latency change    = 0.0180914
throughput change = 0.00738916
Class 0:
Packet latency average = 19.9617
	minimum = 7
	maximum = 58
Network latency average = 19.9617
	minimum = 7
	maximum = 58
Slowest packet = 20303
Flit latency average = 20.0286
	minimum = 7
	maximum = 58
Slowest flit = 20303
Fragmentation average = 0
	minimum = 0
	maximum = 0
Injected packet rate average = 0.0495833
	minimum = 0.036 (at node 15)
	maximum = 0.0626667 (at node 11)
Accepted packet rate average = 0.0495833
	minimum = 0.0413333 (at node 2)
	maximum = 0.0633333 (at node 4)
Injected flit rate average = 0.0495833
	minimum = 0.036 (at node 15)
	maximum = 0.0626667 (at node 11)
Accepted flit rate average= 0.0495833
	minimum = 0.0413333 (at node 2)
	maximum = 0.0633333 (at node 4)
Injected packet length average = 1
Accepted packet length average = 1
Total in-flight flits = 15 (15 measured)
latency change    = 0.0134182
throughput change = 0.0235294
Draining all recorded packets ...
Draining remaining packets ...
Time taken is 3034 cycles
Class 0:
Packet latency average = 19.7459
	minimum = 7
	maximum = 42
Network latency average = 19.7459
	minimum = 7
	maximum = 42
Slowest packet = 20878
Flit latency average = 19.7459
	minimum = 7
	maximum = 42
Slowest flit = 20878
Fragmentation average = 0
	minimum = 0
	maximum = 0
Injected packet rate average = 0.047125
	minimum = 0.034 (at node 2)
	maximum = 0.068 (at node 7)
Accepted packet rate average = 0.04525
	minimum = 0.034 (at node 12)
	maximum = 0.064 (at node 2)
Injected flit rate average = 0.047125
	minimum = 0.034 (at node 2)
	maximum = 0.068 (at node 7)
Accepted flit rate average= 0.04525
	minimum = 0.034 (at node 12)
	maximum = 0.064 (at node 2)
Injected packet length average = 1
Accepted packet length average = 1
Total in-flight flits = 15 (0 measured)
latency change    = 1
throughput change = 1
Class 0:
Packet latency average = 20.3169
	minimum = 7
	maximum = 45
Network latency average = 20.3169
	minimum = 7
	maximum = 45
Slowest packet = 20987
Flit latency average = 20.3169
	minimum = 7
	maximum = 45
Slowest flit = 20987
Fragmentation average = 0
	minimum = 0
	maximum = 0
Injected packet rate average = 0.0475625
	minimum = 0.036 (at node 6)
	maximum = 0.072 (at node 7)
Accepted packet rate average = 0.0469375
	minimum = 0.034 (at node 0)
	maximum = 0.063 (at node 2)
Injected flit rate average = 0.0475625
	minimum = 0.036 (at node 6)
	maximum = 0.072 (at node 7)
Accepted flit rate average= 0.0469375
	minimum = 0.034 (at node 0)
	maximum = 0.063 (at node 2)
Injected packet length average = 1
Accepted packet length average = 1
Total in-flight flits = 10 (0 measured)
latency change    = 0.0281073
throughput change = 0.0359521
Class 0:
Packet latency average = 20.9459
	minimum = 7
	maximum = 44
Network latency average = 20.9459
	minimum = 7
	maximum = 44
Slowest packet = 21514
Flit latency average = 20.9459
	minimum = 7
	maximum = 44
Slowest flit = 21514
Fragmentation average = 0
	minimum = 0
	maximum = 0
Injected packet rate average = 0.04875
	minimum = 0.028 (at node 5)
	maximum = 0.062 (at node 4)
Accepted packet rate average = 0.0485
	minimum = 0.036 (at node 0)
	maximum = 0.064 (at node 4)
Injected flit rate average = 0.04875
	minimum = 0.028 (at node 5)
	maximum = 0.062 (at node 4)
Accepted flit rate average= 0.0485
	minimum = 0.036 (at node 0)
	maximum = 0.064 (at node 4)
Injected packet length average = 1
Accepted packet length average = 1
Total in-flight flits = 12 (0 measured)
latency change    = 0.0300281
throughput change = 0.0322165
Warmed up ...Time used is 1500 cycles
Class 0:
Packet latency average = 20.2199
	minimum = 7
	maximum = 60
Network latency average = 20.2199
	minimum = 7
	maximum = 60
Slowest packet = 21992
Flit latency average = 20.1935
	minimum = 7
	maximum = 60
Slowest flit = 21992
Fragmentation average = 0
	minimum = 0
	maximum = 0
Injected packet rate average = 0.05025
	minimum = 0.036 (at node 7)
	maximum = 0.064 (at node 5)
Accepted packet rate average = 0.050375
	minimum = 0.036 (at node 15)
	maximum = 0.062 (at node 3)
Injected flit rate average = 0.05025
	minimum = 0.036 (at node 7)
	maximum = 0.064 (at node 5)
Accepted flit rate average= 0.050375
	minimum = 0.036 (at node 15)
	maximum = 0.062 (at node 3)
Injected packet length average = 1
Accepted packet length average = 1
Total in-flight flits = 11 (11 measured)
latency change    = 0.0359015
throughput change = 0.0372208
Class 0:
Packet latency average = 20.3208
	minimum = 7
	maximum = 60
Network latency average = 20.3208
	minimum = 7
	maximum = 60
Slowest packet = 21992
Flit latency average = 20.3057
	minimum = 7
	maximum = 60
Slowest flit = 21992
Fragmentation average = 0
	minimum = 0
	maximum = 0
Injected packet rate average = 0.0493125
	minimum = 0.038 (at node 7)
	maximum = 0.059 (at node 12)
Accepted packet rate average = 0.0490625
	minimum = 0.038 (at node 5)
	maximum = 0.058 (at node 3)
Injected flit rate average = 0.0493125
	minimum = 0.038 (at node 7)
	maximum = 0.059 (at node 12)
Accepted flit rate average= 0.0490625
	minimum = 0.038 (at node 5)
	maximum = 0.058 (at node 3)
Injected packet length average = 1
Accepted packet length average = 1
Total in-flight flits = 16 (16 measured)
latency change    = 0.00496432
throughput change = 0.0267516
Class 0:
Packet latency average = 20.1185
	minimum = 7
	maximum = 60
Network latency average = 20.1185
	minimum = 7
	maximum = 60
Slowest packet = 21992
Flit latency average = 20.1106
	minimum = 7
	maximum = 60
Slowest flit = 21992
Fragmentation average = 0
	minimum = 0
	maximum = 0
Injected packet rate average = 0.050375
	minimum = 0.0406667 (at node 2)
	maximum = 0.0566667 (at node 4)
Accepted packet rate average = 0.0500833
	minimum = 0.0406667 (at node 12)
	maximum = 0.0586667 (at node 9)
Injected flit rate average = 0.050375
	minimum = 0.0406667 (at node 2)
	maximum = 0.0566667 (at node 4)
Accepted flit rate average= 0.0500833
	minimum = 0.0406667 (at node 12)
	maximum = 0.0586667 (at node 9)
Injected packet length average = 1
Accepted packet length average = 1
Total in-flight flits = 19 (19 measured)
latency change    = 0.0100574
throughput change = 0.0203827
Draining all recorded packets ...
Draining remaining packets ...
Time taken is 3060 cycles
Class 0:
Packet latency average = 20.5215
	minimum = 7
	maximum = 65
Network latency average = 20.5215
	minimum = 7
	maximum = 65
Slowest packet = 23285
Flit latency average = 20.5215
	minimum = 7
	maximum = 65
Slowest flit = 23285
Fragmentation average = 0
	minimum = 0
	maximum = 0
Injected packet rate average = 0.04625
	minimum = 0.026 (at node 7)
	maximum = 0.06 (at node 0)
Accepted packet rate average = 0.043625
	minimum = 0.026 (at node 5)
	maximum = 0.068 (at node 7)
Injected flit rate average = 0.04625
	minimum = 0.026 (at node 7)
	maximum = 0.06 (at node 0)
Accepted flit rate average= 0.043625
	minimum = 0.026 (at node 5)
	maximum = 0.068 (at node 7)
Injected packet length average = 1
Accepted packet length average = 1
Total in-flight flits = 21 (0 measured)
latency change    = 1
throughput change = 1
Class 0:
Packet latency average = 20.4495
	minimum = 7
	maximum = 65
Network latency average = 20.4495
	minimum = 7
	maximum = 65
Slowest packet = 23285
Flit latency average = 20.4495
	minimum = 7
	maximum = 65
Slowest flit = 23285
Fragmentation average = 0
	minimum = 0
	maximum = 0
Injected packet rate average = 0.04825
	minimum = 0.036 (at node 7)
	maximum = 0.057 (at node 5)
Accepted packet rate average = 0.0476875
	minimum = 0.037 (at node 3)
	maximum = 0.063 (at node 7)
Injected flit rate average = 0.04825
	minimum = 0.036 (at node 7)
	maximum = 0.057 (at node 5)
Accepted flit rate average= 0.0476875
	minimum = 0.037 (at node 3)
	maximum = 0.063 (at node 7)
Injected packet length average = 1
Accepted packet length average = 1
Total in-flight flits = 9 (0 measured)
latency change    = 0.00351835
throughput change = 0.08519
Class 0:
Packet latency average = 20.388
	minimum = 7
	maximum = 50
Network latency average = 20.388
	minimum = 7
	maximum = 50
Slowest packet = 23764
Flit latency average = 20.388
	minimum = 7
	maximum = 50
Slowest flit = 23764
Fragmentation average = 0
	minimum = 0
	maximum = 0
Injected packet rate average = 0.0465
	minimum = 0.03 (at node 9)
	maximum = 0.066 (at node 4)
Accepted packet rate average = 0.04575
	minimum = 0.026 (at node 15)
	maximum = 0.072 (at node 1)
Injected flit rate average = 0.0465
	minimum = 0.03 (at node 9)
	maximum = 0.066 (at node 4)
Accepted flit rate average= 0.04575
	minimum = 0.026 (at node 15)
	maximum = 0.072 (at node 1)
Injected packet length average = 1
Accepted packet length average = 1
Total in-flight flits = 15 (0 measured)
latency change    = 0.00301958
throughput change = 0.0423497
Warmed up ...Time used is 1500 cycles
Class 0:
Packet latency average = 21.3127
	minimum = 7
	maximum = 57
Network latency average = 21.3127
	minimum = 7
	maximum = 57
Slowest packet = 24314
Flit latency average = 21.4876
	minimum = 7
	maximum = 57
Slowest flit = 24314
Fragmentation average = 0
	minimum = 0
	maximum = 0
Injected packet rate average = 0.050375
	minimum = 0.038 (at node 1)
	maximum = 0.064 (at node 3)
Accepted packet rate average = 0.05025
	minimum = 0.03 (at node 6)
	maximum = 0.068 (at node 0)
Injected flit rate average = 0.050375
	minimum = 0.038 (at node 1)
	maximum = 0.064 (at node 3)
Accepted flit rate average= 0.05025
	minimum = 0.03 (at node 6)
	maximum = 0.068 (at node 0)
Injected packet length average = 1
Accepted packet length average = 1
Total in-flight flits = 16 (16 measured)
latency change    = 0.0433866
throughput change = 0.0895522
Class 0:
Packet latency average = 20.8577
	minimum = 7
	maximum = 57
Network latency average = 20.8577
	minimum = 7
	maximum = 57
Slowest packet = 24314
Flit latency average = 20.9522
	minimum = 7
	maximum = 57
Slowest flit = 24314
Fragmentation average = 0
	minimum = 0
	maximum = 0
Injected packet rate average = 0.051
	minimum = 0.041 (at node 6)
	maximum = 0.065 (at node 14)
Accepted packet rate average = 0.051
	minimum = 0.036 (at node 5)
	maximum = 0.065 (at node 10)
Injected flit rate average = 0.051
	minimum = 0.041 (at node 6)
	maximum = 0.065 (at node 14)
Accepted flit rate average= 0.051
	minimum = 0.036 (at node 5)
	maximum = 0.065 (at node 10)
Injected packet length average = 1
Accepted packet length average = 1
Total in-flight flits = 15 (15 measured)
latency change    = 0.0218137
throughput change = 0.0147059
Class 0:
Packet latency average = 20.6236
	minimum = 7
	maximum = 57
Network latency average = 20.6236
	minimum = 7
	maximum = 57
Slowest packet = 24314
Flit latency average = 20.69
	minimum = 7
	maximum = 57
Slowest flit = 24314
Fragmentation average = 0
	minimum = 0
	maximum = 0
Injected packet rate average = 0.0509167
	minimum = 0.046 (at node 5)
	maximum = 0.058 (at node 14)
Accepted packet rate average = 0.0506667
	minimum = 0.0373333 (at node 11)
	maximum = 0.0633333 (at node 10)
Injected flit rate average = 0.0509167
	minimum = 0.046 (at node 5)
	maximum = 0.058 (at node 14)
Accepted flit rate average= 0.0506667
	minimum = 0.0373333 (at node 11)
	maximum = 0.0633333 (at node 10)
Injected packet length average = 1
Accepted packet length average = 1
Total in-flight flits = 21 (21 measured)
latency change    = 0.0113477
throughput change = 0.00657895
Class 0:
Packet latency average = 20.6078
	minimum = 7
	maximum = 57
Network latency average = 20.6078
	minimum = 7
	maximum = 57
Slowest packet = 24314
Flit latency average = 20.6573
	minimum = 7
	maximum = 57
Slowest flit = 24314
Fragmentation average = 0
	minimum = 0
	maximum = 0
Injected packet rate average = 0.0510313
	minimum = 0.045 (at node 8)
	maximum = 0.06 (at node 14)
Accepted packet rate average = 0.0510625
	minimum = 0.0425 (at node 11)
	maximum = 0.0615 (at node 10)
Injected flit rate average = 0.0510313
	minimum = 0.045 (at node 8)
	maximum = 0.06 (at node 14)
Accepted flit rate average= 0.0510625
	minimum = 0.0425 (at node 11)
	maximum = 0.0615 (at node 10)
Injected packet length average = 1
Accepted packet length average = 1
Total in-flight flits = 14 (14 measured)
latency change    = 0.000769825
throughput change = 0.00775194
Draining all recorded packets ...
Draining remaining packets ...
Time taken is 3558 cycles
Class 0:
Packet latency average = 19.5648
	minimum = 7
	maximum = 43
Network latency average = 19.5648
	minimum = 7
	maximum = 43
Slowest packet = 25802
Flit latency average = 19.5648
	minimum = 7
	maximum = 43
Slowest flit = 25802
Fragmentation average = 0
	minimum = 0
	maximum = 0
Injected packet rate average = 0.051625
	minimum = 0.04 (at node 12)
	maximum = 0.072 (at node 2)
Accepted packet rate average = 0.04825
	minimum = 0.032 (at node 14)
	maximum = 0.062 (at node 3)
Injected flit rate average = 0.051625
	minimum = 0.04 (at node 12)
	maximum = 0.072 (at node 2)
Accepted flit rate average= 0.04825
	minimum = 0.032 (at node 14)
	maximum = 0.062 (at node 3)
Injected packet length average = 1
Accepted packet length average = 1
Total in-flight flits = 27 (0 measured)
latency change    = 1
throughput change = 1
Class 0:
Packet latency average = 20.5848
	minimum = 7
	maximum = 44
Network latency average = 20.5848
	minimum = 7
	maximum = 44
Slowest packet = 26380
Flit latency average = 20.5848
	minimum = 7
	maximum = 44
Slowest flit = 26380
Fragmentation average = 0
	minimum = 0
	maximum = 0
Injected packet rate average = 0.051125
	minimum = 0.038 (at node 9)
	maximum = 0.064 (at node 2)
Accepted packet rate average = 0.049375
	minimum = 0.036 (at node 14)
	maximum = 0.062 (at node 6)
Injected flit rate average = 0.051125
	minimum = 0.038 (at node 9)
	maximum = 0.064 (at node 2)
Accepted flit rate average= 0.049375
	minimum = 0.036 (at node 14)
	maximum = 0.062 (at node 6)
Injected packet length average = 1
Accepted packet length average = 1
Total in-flight flits = 28 (0 measured)
latency change    = 0.0495532
throughput change = 0.0227848
Class 0:
Packet latency average = 20.4568
	minimum = 7
	maximum = 46
Network latency average = 20.4568
	minimum = 7
	maximum = 46
Slowest packet = 26865
Flit latency average = 20.4568
	minimum = 7
	maximum = 46
Slowest flit = 26865
Fragmentation average = 0
	minimum = 0
	maximum = 0
Injected packet rate average = 0.0485
	minimum = 0.03 (at node 4)
	maximum = 0.064 (at node 15)
Accepted packet rate average = 0.050625
	minimum = 0.034 (at node 14)
	maximum = 0.066 (at node 5)
Injected flit rate average = 0.0485
	minimum = 0.03 (at node 4)
	maximum = 0.064 (at node 15)
Accepted flit rate average= 0.050625
	minimum = 0.034 (at node 14)
	maximum = 0.066 (at node 5)
Injected packet length average = 1
Accepted packet length average = 1
Total in-flight flits = 11 (0 measured)
latency change    = 0.00625807
throughput change = 0.0246914
Warmed up ...Time used is 1500 cycles
Class 0:
Packet latency average = 20.538
	minimum = 7
	maximum = 53
Network latency average = 20.538
	minimum = 7
	maximum = 53
Slowest packet = 27329
Flit latency average = 20.7322
	minimum = 7
	maximum = 53
Slowest flit = 27329
Fragmentation average = 0
	minimum = 0
	maximum = 0
Injected packet rate average = 0.04625
	minimum = 0.038 (at node 0)
	maximum = 0.064 (at node 12)
Accepted packet rate average = 0.04575
	minimum = 0.032 (at node 13)
	maximum = 0.058 (at node 4)
Injected flit rate average = 0.04625
	minimum = 0.038 (at node 0)
	maximum = 0.064 (at node 12)
Accepted flit rate average= 0.04575
	minimum = 0.032 (at node 13)
	maximum = 0.058 (at node 4)
Injected packet length average = 1
Accepted packet length average = 1
Total in-flight flits = 15 (15 measured)
latency change    = 0.00395549
throughput change = 0.106557
Class 0:
Packet latency average = 20.5767
	minimum = 7
	maximum = 53
Network latency average = 20.5767
	minimum = 7
	maximum = 53
Slowest packet = 27329
Flit latency average = 20.668
	minimum = 7
	maximum = 53
Slowest flit = 27329
Fragmentation average = 0
	minimum = 0
	maximum = 0
Injected packet rate average = 0.0481875
	minimum = 0.038 (at node 6)
	maximum = 0.063 (at node 9)
Accepted packet rate average = 0.048375
	minimum = 0.039 (at node 1)
	maximum = 0.058 (at node 7)
Injected flit rate average = 0.0481875
	minimum = 0.038 (at node 6)
	maximum = 0.063 (at node 9)
Accepted flit rate average= 0.048375
	minimum = 0.039 (at node 1)
	maximum = 0.058 (at node 7)
Injected packet length average = 1
Accepted packet length average = 1
Total in-flight flits = 8 (8 measured)
latency change    = 0.00187799
throughput change = 0.0542636
Class 0:
Packet latency average = 20.5554
	minimum = 7
	maximum = 53
Network latency average = 20.5554
	minimum = 7
	maximum = 53
Slowest packet = 27329
Flit latency average = 20.6143
	minimum = 7
	maximum = 53
Slowest flit = 27329
Fragmentation average = 0
	minimum = 0
	maximum = 0
Injected packet rate average = 0.0502083
	minimum = 0.0433333 (at node 6)
	maximum = 0.062 (at node 12)
Accepted packet rate average = 0.050125
	minimum = 0.038 (at node 1)
	maximum = 0.0566667 (at node 15)
Injected flit rate average = 0.0502083
	minimum = 0.0433333 (at node 6)
	maximum = 0.062 (at node 12)
Accepted flit rate average= 0.050125
	minimum = 0.038 (at node 1)
	maximum = 0.0566667 (at node 15)
Injected packet length average = 1
Accepted packet length average = 1
Total in-flight flits = 13 (13 measured)
latency change    = 0.00103632
throughput change = 0.0349127
Class 0:
Packet latency average = 20.5877
	minimum = 7
	maximum = 62
Network latency average = 20.5877
	minimum = 7
	maximum = 62
Slowest packet = 28263
Flit latency average = 20.6316
	minimum = 7
	maximum = 62
Slowest flit = 28263
Fragmentation average = 0
	minimum = 0
	maximum = 0
Injected packet rate average = 0.0504375
	minimum = 0.0425 (at node 6)
	maximum = 0.065 (at node 9)
Accepted packet rate average = 0.0502187
	minimum = 0.0415 (at node 1)
	maximum = 0.058 (at node 14)
Injected flit rate average = 0.0504375
	minimum = 0.0425 (at node 6)
	maximum = 0.065 (at node 9)
Accepted flit rate average= 0.0502187
	minimum = 0.0415 (at node 1)
	maximum = 0.058 (at node 14)
Injected packet length average = 1
Accepted packet length average = 1
Total in-flight flits = 18 (18 measured)
latency change    = 0.00157133
throughput change = 0.00186683
Class 0:
Packet latency average = 20.4248
	minimum = 7
	maximum = 62
Network latency average = 20.4248
	minimum = 7
	maximum = 62
Slowest packet = 28263
Flit latency average = 20.4611
	minimum = 7
	maximum = 62
Slowest flit = 28263
Fragmentation average = 0
	minimum = 0
	maximum = 0
Injected packet rate average = 0.04995
	minimum = 0.0444 (at node 6)
	maximum = 0.0616 (at node 9)
Accepted packet rate average = 0.049825
	minimum = 0.0428 (at node 1)
	maximum = 0.0532 (at node 13)
Injected flit rate average = 0.04995
	minimum = 0.0444 (at node 6)
	maximum = 0.0616 (at node 9)
Accepted flit rate average= 0.049825
	minimum = 0.0428 (at node 1)
	maximum = 0.0532 (at node 13)
Injected packet length average = 1
Accepted packet length average = 1
Total in-flight flits = 16 (16 measured)
latency change    = 0.00797539
throughput change = 0.00790266
Draining all recorded packets ...
Draining remaining packets ...
Time taken is 4058 cycles
Class 0:
Packet latency average = 19.9331
	minimum = 7
	maximum = 62
Network latency average = 19.9331
	minimum = 7
	maximum = 62
Slowest packet = 29134
Flit latency average = 19.9331
	minimum = 7
	maximum = 62
Slowest flit = 29134
Fragmentation average = 0
	minimum = 0
	maximum = 0
Injected packet rate average = 0.047
	minimum = 0.03 (at node 1)
	maximum = 0.07 (at node 4)
Accepted packet rate average = 0.044875
	minimum = 0.032 (at node 1)
	maximum = 0.064 (at node 10)
Injected flit rate average = 0.047
	minimum = 0.03 (at node 1)
	maximum = 0.07 (at node 4)
Accepted flit rate average= 0.044875
	minimum = 0.032 (at node 1)
	maximum = 0.064 (at node 10)
Injected packet length average = 1
Accepted packet length average = 1
Total in-flight flits = 17 (0 measured)
latency change    = 1
throughput change = 1
Class 0:
Packet latency average = 20.4054
	minimum = 7
	maximum = 62
Network latency average = 20.4054
	minimum = 7
	maximum = 62
Slowest packet = 29134
Flit latency average = 20.4054
	minimum = 7
	maximum = 62
Slowest flit = 29134
Fragmentation average = 0
	minimum = 0
	maximum = 0
Injected packet rate average = 0.04925
	minimum = 0.034 (at node 10)
	maximum = 0.07 (at node 4)
Accepted packet rate average = 0.0485625
	minimum = 0.039 (at node 1)
	maximum = 0.062 (at node 10)
Injected flit rate average = 0.04925
	minimum = 0.034 (at node 10)
	maximum = 0.07 (at node 4)
Accepted flit rate average= 0.0485625
	minimum = 0.039 (at node 1)
	maximum = 0.062 (at node 10)
Injected packet length average = 1
Accepted packet length average = 1
Total in-flight flits = 11 (0 measured)
latency change    = 0.0231438
throughput change = 0.0759331
Class 0:
Packet latency average = 19.6775
	minimum = 7
	maximum = 48
Network latency average = 19.6775
	minimum = 7
	maximum = 48
Slowest packet = 29863
Flit latency average = 19.6775
	minimum = 7
	maximum = 48
Slowest flit = 29863
Fragmentation average = 0
	minimum = 0
	maximum = 0
Injected packet rate average = 0.047125
	minimum = 0.028 (at node 2)
	maximum = 0.064 (at node 12)
Accepted packet rate average = 0.046125
	minimum = 0.034 (at node 12)
	maximum = 0.058 (at node 15)
Injected flit rate average = 0.047125
	minimum = 0.028 (at node 2)
	maximum = 0.064 (at node 12)
Accepted flit rate average= 0.046125
	minimum = 0.034 (at node 12)
	maximum = 0.058 (at node 15)
Injected packet length average = 1
Accepted packet length average = 1
Total in-flight flits = 19 (0 measured)
latency change    = 0.0369914
throughput change = 0.0528455
Warmed up ...Time used is 1500 cycles
Class 0:
Packet latency average = 20.1799
	minimum = 7
	maximum = 52
Network latency average = 20.1799
	minimum = 7
	maximum = 52
Slowest packet = 30217
Flit latency average = 20.2661
	minimum = 7
	maximum = 52
Slowest flit = 30217
Fragmentation average = 0
	minimum = 0
	maximum = 0
Injected packet rate average = 0.054
	minimum = 0.034 (at node 6)
	maximum = 0.07 (at node 11)
Accepted packet rate average = 0.0545
	minimum = 0.036 (at node 0)
	maximum = 0.076 (at node 14)
Injected flit rate average = 0.054
	minimum = 0.034 (at node 6)
	maximum = 0.07 (at node 11)
Accepted flit rate average= 0.0545
	minimum = 0.036 (at node 0)
	maximum = 0.076 (at node 14)
Injected packet length average = 1
Accepted packet length average = 1
Total in-flight flits = 15 (15 measured)
latency change    = 0.0248936
throughput change = 0.15367
Class 0:
Packet latency average = 20.0885
	minimum = 7
	maximum = 52
Network latency average = 20.0885
	minimum = 7
	maximum = 52
Slowest packet = 30217
Flit latency average = 20.1345
	minimum = 7
	maximum = 52
Slowest flit = 30217
Fragmentation average = 0
	minimum = 0
	maximum = 0
Injected packet rate average = 0.052875
	minimum = 0.043 (at node 6)
	maximum = 0.061 (at node 11)
Accepted packet rate average = 0.0534375
	minimum = 0.047 (at node 1)
	maximum = 0.071 (at node 14)
Injected flit rate average = 0.052875
	minimum = 0.043 (at node 6)
	maximum = 0.061 (at node 11)
Accepted flit rate average= 0.0534375
	minimum = 0.047 (at node 1)
	maximum = 0.071 (at node 14)
Injected packet length average = 1
Accepted packet length average = 1
Total in-flight flits = 10 (10 measured)
latency change    = 0.00454684
throughput change = 0.019883
Class 0:
Packet latency average = 19.7308
	minimum = 7
	maximum = 52
Network latency average = 19.7292
	minimum = 7
	maximum = 52
Slowest packet = 30217
Flit latency average = 19.7663
	minimum = 7
	maximum = 52
Slowest flit = 30217
Fragmentation average = 0
	minimum = 0
	maximum = 0
Injected packet rate average = 0.0517917
	minimum = 0.044 (at node 15)
	maximum = 0.0606667 (at node 11)
Accepted packet rate average = 0.051875
	minimum = 0.0466667 (at node 0)
	maximum = 0.062 (at node 14)
Injected flit rate average = 0.0517917
	minimum = 0.044 (at node 15)
	maximum = 0.0606667 (at node 11)
Accepted flit rate average= 0.051875
	minimum = 0.0466667 (at node 0)
	maximum = 0.062 (at node 14)
Injected packet length average = 1
Accepted packet length average = 1
Total in-flight flits = 17 (17 measured)
latency change    = 0.0181282
throughput change = 0.0301205
Class 0:
Packet latency average = 19.6853
	minimum = 7
	maximum = 52
Network latency average = 19.684
	minimum = 7
	maximum = 52
Slowest packet = 30217
Flit latency average = 19.7129
	minimum = 7
	maximum = 52
Slowest flit = 30217
Fragmentation average = 0
	minimum = 0
	maximum = 0
Injected packet rate average = 0.0508438
	minimum = 0.0455 (at node 2)
	maximum = 0.0615 (at node 11)
Accepted packet rate average = 0.0509375
	minimum = 0.045 (at node 7)
	maximum = 0.061 (at node 14)
Injected flit rate average = 0.0508438
	minimum = 0.0455 (at node 2)
	maximum = 0.0615 (at node 11)
Accepted flit rate average= 0.0509375
	minimum = 0.045 (at node 7)
	maximum = 0.061 (at node 14)
Injected packet length average = 1
Accepted packet length average = 1
Total in-flight flits = 16 (16 measured)
latency change    = 0.00231357
throughput change = 0.0184049
Draining all recorded packets ...
Draining remaining packets ...
Time taken is 3571 cycles
Class 0:
Packet latency average = 20.0083
	minimum = 7
	maximum = 42
Network latency average = 20.0083
	minimum = 7
	maximum = 42
Slowest packet = 31964
Flit latency average = 20.0083
	minimum = 7
	maximum = 42
Slowest flit = 31964
Fragmentation average = 0
	minimum = 0
	maximum = 0
Injected packet rate average = 0.046875
	minimum = 0.034 (at node 1)
	maximum = 0.08 (at node 14)
Accepted packet rate average = 0.04525
	minimum = 0.022 (at node 0)
	maximum = 0.066 (at node 11)
Injected flit rate average = 0.046875
	minimum = 0.034 (at node 1)
	maximum = 0.08 (at node 14)
Accepted flit rate average= 0.04525
	minimum = 0.022 (at node 0)
	maximum = 0.066 (at node 11)
Injected packet length average = 1
Accepted packet length average = 1
Total in-flight flits = 13 (0 measured)
latency change    = 1
throughput change = 1
Class 0:
Packet latency average = 20.6367
	minimum = 7
	maximum = 51
Network latency average = 20.6367
	minimum = 7
	maximum = 51
Slowest packet = 32343
Flit latency average = 20.6367
	minimum = 7
	maximum = 51
Slowest flit = 32343
Fragmentation average = 0
	minimum = 0
	maximum = 0
Injected packet rate average = 0.0506875
	minimum = 0.038 (at node 11)
	maximum = 0.063 (at node 2)
Accepted packet rate average = 0.049375
	minimum = 0.035 (at node 7)
	maximum = 0.065 (at node 12)
Injected flit rate average = 0.0506875
	minimum = 0.038 (at node 11)
	maximum = 0.063 (at node 2)
Accepted flit rate average= 0.049375
	minimum = 0.035 (at node 7)
	maximum = 0.065 (at node 12)
Injected packet length average = 1
Accepted packet length average = 1
Total in-flight flits = 21 (0 measured)
latency change    = 0.0304516
throughput change = 0.0835443
Class 0:
Packet latency average = 20.1801
	minimum = 7
	maximum = 55
Network latency average = 20.1801
	minimum = 7
	maximum = 55
Slowest packet = 32622
Flit latency average = 20.1801
	minimum = 7
	maximum = 55
Slowest flit = 32622
Fragmentation average = 0
	minimum = 0
	maximum = 0
Injected packet rate average = 0.046
	minimum = 0.018 (at node 15)
	maximum = 0.066 (at node 0)
Accepted packet rate average = 0.0465
	minimum = 0.026 (at node 11)
	maximum = 0.066 (at node 2)
Injected flit rate average = 0.046
	minimum = 0.018 (at node 15)
	maximum = 0.066 (at node 0)
Accepted flit rate average= 0.0465
	minimum = 0.026 (at node 11)
	maximum = 0.066 (at node 2)
Injected packet length average = 1
Accepted packet length average = 1
Total in-flight flits = 17 (0 measured)
latency change    = 0.0226263
throughput change = 0.061828
Warmed up ...Time used is 1500 cycles
Class 0:
Packet latency average = 20.7388
	minimum = 7
	maximum = 45
Network latency average = 20.7388
	minimum = 7
	maximum = 45
Slowest packet = 33379
Flit latency average = 20.8663
	minimum = 7
	maximum = 45
Slowest flit = 33379
Fragmentation average = 0
	minimum = 0
	maximum = 0
Injected packet rate average = 0.052125
	minimum = 0.04 (at node 2)
	maximum = 0.074 (at node 12)
Accepted packet rate average = 0.052375
	minimum = 0.038 (at node 1)
	maximum = 0.066 (at node 10)
Injected flit rate average = 0.052125
	minimum = 0.04 (at node 2)
	maximum = 0.074 (at node 12)
Accepted flit rate average= 0.052375
	minimum = 0.038 (at node 1)
	maximum = 0.066 (at node 10)
Injected packet length average = 1
Accepted packet length average = 1
Total in-flight flits = 15 (15 measured)
latency change    = 0.0269398
throughput change = 0.112172
Class 0:
Packet latency average = 20.0931
	minimum = 7
	maximum = 47
Network latency average = 20.0931
	minimum = 7
	maximum = 47
Slowest packet = 33811
Flit latency average = 20.1713
	minimum = 7
	maximum = 47
Slowest flit = 33811
Fragmentation average = 0
	minimum = 0
	maximum = 0
Injected packet rate average = 0.0519375
	minimum = 0.041 (at node 1)
	maximum = 0.075 (at node 13)
Accepted packet rate average = 0.0514375
	minimum = 0.042 (at node 8)
	maximum = 0.065 (at node 11)
Injected flit rate average = 0.0519375
	minimum = 0.041 (at node 1)
	maximum = 0.075 (at node 13)
Accepted flit rate average= 0.0514375
	minimum = 0.042 (at node 8)
	maximum = 0.065 (at node 11)
Injected packet length average = 1
Accepted packet length average = 1
Total in-flight flits = 25 (25 measured)
latency change    = 0.0321382
throughput change = 0.018226
Class 0:
Packet latency average = 20.1022
	minimum = 7
	maximum = 47
Network latency average = 20.1022
	minimum = 7
	maximum = 47
Slowest packet = 33811
Flit latency average = 20.154
	minimum = 7
	maximum = 47
Slowest flit = 33811
Fragmentation average = 0
	minimum = 0
	maximum = 0
Injected packet rate average = 0.0516667
	minimum = 0.042 (at node 1)
	maximum = 0.07 (at node 13)
Accepted packet rate average = 0.0516667
	minimum = 0.0426667 (at node 0)
	maximum = 0.0633333 (at node 10)
Injected flit rate average = 0.0516667
	minimum = 0.042 (at node 1)
	maximum = 0.07 (at node 13)
Accepted flit rate average= 0.0516667
	minimum = 0.0426667 (at node 0)
	maximum = 0.0633333 (at node 10)
Injected packet length average = 1
Accepted packet length average = 1
Total in-flight flits = 17 (17 measured)
latency change    = 0.000455451
throughput change = 0.00443548
Class 0:
Packet latency average = 20.1682
	minimum = 7
	maximum = 47
Network latency average = 20.1682
	minimum = 7
	maximum = 47
Slowest packet = 33811
Flit latency average = 20.2063
	minimum = 7
	maximum = 47
Slowest flit = 33811
Fragmentation average = 0
	minimum = 0
	maximum = 0
Injected packet rate average = 0.052125
	minimum = 0.043 (at node 1)
	maximum = 0.062 (at node 13)
Accepted packet rate average = 0.0518125
	minimum = 0.042 (at node 8)
	maximum = 0.062 (at node 11)
Injected flit rate average = 0.052125
	minimum = 0.043 (at node 1)
	maximum = 0.062 (at node 13)
Accepted flit rate average= 0.0518125
	minimum = 0.042 (at node 8)
	maximum = 0.062 (at node 11)
Injected packet length average = 1
Accepted packet length average = 1
Total in-flight flits = 27 (27 measured)
latency change    = 0.00327161
throughput change = 0.00281464
Draining all recorded packets ...
Draining remaining packets ...
Time taken is 3559 cycles
Class 0:
Packet latency average = 19.8245
	minimum = 7
	maximum = 46
Network latency average = 19.8245
	minimum = 7
	maximum = 46
Slowest packet = 34855
Flit latency average = 19.8245
	minimum = 7
	maximum = 46
Slowest flit = 34855
Fragmentation average = 0
	minimum = 0
	maximum = 0
Injected packet rate average = 0.04925
	minimum = 0.034 (at node 7)
	maximum = 0.064 (at node 4)
Accepted packet rate average = 0.047
	minimum = 0.022 (at node 13)
	maximum = 0.066 (at node 2)
Injected flit rate average = 0.04925
	minimum = 0.034 (at node 7)
	maximum = 0.064 (at node 4)
Accepted flit rate average= 0.047
	minimum = 0.022 (at node 13)
	maximum = 0.066 (at node 2)
Injected packet length average = 1
Accepted packet length average = 1
Total in-flight flits = 18 (0 measured)
latency change    = 1
throughput change = 1
Class 0:
Packet latency average = 20.2153
	minimum = 7
	maximum = 47
Network latency average = 20.2153
	minimum = 7
	maximum = 47
Slowest packet = 35195
Flit latency average = 20.2153
	minimum = 7
	maximum = 47
Slowest flit = 35195
Fragmentation average = 0
	minimum = 0
	maximum = 0
Injected packet rate average = 0.0490625
	minimum = 0.037 (at node 7)
	maximum = 0.061 (at node 14)
Accepted packet rate average = 0.0481875
	minimum = 0.027 (at node 13)
	maximum = 0.059 (at node 6)
Injected flit rate average = 0.0490625
	minimum = 0.037 (at node 7)
	maximum = 0.061 (at node 14)
Accepted flit rate average= 0.0481875
	minimum = 0.027 (at node 13)
	maximum = 0.059 (at node 6)
Injected packet length average = 1
Accepted packet length average = 1
Total in-flight flits = 14 (0 measured)
latency change    = 0.0193337
throughput change = 0.0246433
Class 0:
Packet latency average = 20.1172
	minimum = 7
	maximum = 48
Network latency average = 20.1172
	minimum = 7
	maximum = 48
Slowest packet = 35578
Flit latency average = 20.1172
	minimum = 7
	maximum = 48
Slowest flit = 35578
Fragmentation average = 0
	minimum = 0
	maximum = 0
Injected packet rate average = 0.0525
	minimum = 0.036 (at node 0)
	maximum = 0.066 (at node 13)
Accepted packet rate average = 0.05225
	minimum = 0.036 (at node 2)
	maximum = 0.068 (at node 4)
Injected flit rate average = 0.0525
	minimum = 0.036 (at node 0)
	maximum = 0.066 (at node 13)
Accepted flit rate average= 0.05225
	minimum = 0.036 (at node 2)
	maximum = 0.068 (at node 4)
Injected packet length average = 1
Accepted packet length average = 1
Total in-flight flits = 16 (0 measured)
latency change    = 0.00487542
throughput change = 0.0777512
Warmed up ...Time used is 1500 cycles
Class 0:
Packet latency average = 19.9081
	minimum = 7
	maximum = 42
Network latency average = 19.9081
	minimum = 7
	maximum = 42
Slowest packet = 36078
Flit latency average = 20.1554
	minimum = 7
	maximum = 43
Slowest flit = 35894
Fragmentation average = 0
	minimum = 0
	maximum = 0
Injected packet rate average = 0.048375
	minimum = 0.026 (at node 6)
	maximum = 0.06 (at node 4)
Accepted packet rate average = 0.04825
	minimum = 0.034 (at node 1)
	maximum = 0.062 (at node 3)
Injected flit rate average = 0.048375
	minimum = 0.026 (at node 6)
	maximum = 0.06 (at node 4)
Accepted flit rate average= 0.04825
	minimum = 0.034 (at node 1)
	maximum = 0.062 (at node 3)
Injected packet length average = 1
Accepted packet length average = 1
Total in-flight flits = 17 (17 measured)
latency change    = 0.0105041
throughput change = 0.0829016
Class 0:
Packet latency average = 19.9699
	minimum = 7
	maximum = 43
Network latency average = 19.9699
	minimum = 7
	maximum = 43
Slowest packet = 36459
Flit latency average = 20.086
	minimum = 7
	maximum = 43
Slowest flit = 35894
Fragmentation average = 0
	minimum = 0
	maximum = 0
Injected packet rate average = 0.050875
	minimum = 0.034 (at node 6)
	maximum = 0.062 (at node 15)
Accepted packet rate average = 0.050875
	minimum = 0.041 (at node 1)
	maximum = 0.065 (at node 3)
Injected flit rate average = 0.050875
	minimum = 0.034 (at node 6)
	maximum = 0.062 (at node 15)
Accepted flit rate average= 0.050875
	minimum = 0.041 (at node 1)
	maximum = 0.065 (at node 3)
Injected packet length average = 1
Accepted packet length average = 1
Total in-flight flits = 16 (16 measured)
latency change    = 0.00309549
throughput change = 0.0515971
Class 0:
Packet latency average = 20.2817
	minimum = 7
	maximum = 55
Network latency average = 20.2817
	minimum = 7
	maximum = 55
Slowest packet = 37119
Flit latency average = 20.3534
	minimum = 7
	maximum = 55
Slowest flit = 37119
Fragmentation average = 0
	minimum = 0
	maximum = 0
Injected packet rate average = 0.0519167
	minimum = 0.0393333 (at node 6)
	maximum = 0.0633333 (at node 7)
Accepted packet rate average = 0.052
	minimum = 0.0386667 (at node 1)
	maximum = 0.0613333 (at node 3)
Injected flit rate average = 0.0519167
	minimum = 0.0393333 (at node 6)
	maximum = 0.0633333 (at node 7)
Accepted flit rate average= 0.052
	minimum = 0.0386667 (at node 1)
	maximum = 0.0613333 (at node 3)
Injected packet length average = 1
[...]
	minimum = 7
	maximum = 44
Slowest packet = 129320
Flit latency average = 19.8195
	minimum = 7
	maximum = 44
Slowest flit = 129320
Fragmentation average = 0
	minimum = 0
	maximum = 0
Injected packet rate average = 0.053625
	minimum = 0.04 (at node 12)
	maximum = 0.07 (at node 3)
Accepted packet rate average = 0.05125
	minimum = 0.024 (at node 2)
	maximum = 0.072 (at node 11)
Injected flit rate average = 0.053625
	minimum = 0.04 (at node 12)
	maximum = 0.07 (at node 3)
Accepted flit rate average= 0.05125
	minimum = 0.024 (at node 2)
	maximum = 0.072 (at node 11)
Injected packet length average = 1
Accepted packet length average = 1
Total in-flight flits = 19 (0 measured)
latency change    = 1
throughput change = 1
Class 0:
Packet latency average = 19.9077
	minimum = 7
	maximum = 44
Network latency average = 19.9077
	minimum = 7
	maximum = 44
Slowest packet = 129320
Flit latency average = 19.9077
	minimum = 7
	maximum = 44
Slowest flit = 129320
Fragmentation average = 0
	minimum = 0
	maximum = 0
Injected packet rate average = 0.0523125
	minimum = 0.043 (at node 13)
	maximum = 0.066 (at node 1)
Accepted packet rate average = 0.0514375
	minimum = 0.041 (at node 2)
	maximum = 0.067 (at node 8)
Injected flit rate average = 0.0523125
	minimum = 0.043 (at node 13)
	maximum = 0.066 (at node 1)
Accepted flit rate average= 0.0514375
	minimum = 0.041 (at node 2)
	maximum = 0.067 (at node 8)
Injected packet length average = 1
Accepted packet length average = 1
Total in-flight flits = 14 (0 measured)
latency change    = 0.00442758
throughput change = 0.0036452
Class 0:
Packet latency average = 20.685
	minimum = 7
	maximum = 51
Network latency average = 20.685
	minimum = 7
	maximum = 51
Slowest packet = 129949
Flit latency average = 20.685
	minimum = 7
	maximum = 51
Slowest flit = 129949
Fragmentation average = 0
	minimum = 0
	maximum = 0
Injected packet rate average = 0.049875
	minimum = 0.028 (at node 0)
	maximum = 0.078 (at node 11)
Accepted packet rate average = 0.05
	minimum = 0.034 (at node 4)
	maximum = 0.074 (at node 15)
Injected flit rate average = 0.049875
	minimum = 0.028 (at node 0)
	maximum = 0.078 (at node 11)
Accepted flit rate average= 0.05
	minimum = 0.034 (at node 4)
	maximum = 0.074 (at node 15)
Injected packet length average = 1
Accepted packet length average = 1
Total in-flight flits = 13 (0 measured)
latency change    = 0.0375801
throughput change = 0.02875
Warmed up ...Time used is 1500 cycles
Class 0:
Packet latency average = 19.8654
	minimum = 7
	maximum = 43
Network latency average = 19.8654
	minimum = 7
	maximum = 43
Slowest packet = 130537
Flit latency average = 19.973
	minimum = 7
	maximum = 43
Slowest flit = 130537
Fragmentation average = 0
	minimum = 0
	maximum = 0
Injected packet rate average = 0.0565
	minimum = 0.044 (at node 0)
	maximum = 0.074 (at node 10)
Accepted packet rate average = 0.0555
	minimum = 0.044 (at node 14)
	maximum = 0.078 (at node 1)
Injected flit rate average = 0.0565
	minimum = 0.044 (at node 0)
	maximum = 0.074 (at node 10)
Accepted flit rate average= 0.0555
	minimum = 0.044 (at node 14)
	maximum = 0.078 (at node 1)
Injected packet length average = 1
Accepted packet length average = 1
Total in-flight flits = 21 (21 measured)
latency change    = 0.0412561
throughput change = 0.0990991
Class 0:
Packet latency average = 19.9535
	minimum = 7
	maximum = 47
Network latency average = 19.9535
	minimum = 7
	maximum = 47
Slowest packet = 130651
Flit latency average = 20.0096
	minimum = 7
	maximum = 47
Slowest flit = 130651
Fragmentation average = 0
	minimum = 0
	maximum = 0
Injected packet rate average = 0.052
	minimum = 0.043 (at node 15)
	maximum = 0.07 (at node 10)
Accepted packet rate average = 0.051875
	minimum = 0.044 (at node 7)
	maximum = 0.063 (at node 9)
Injected flit rate average = 0.052
	minimum = 0.043 (at node 15)
	maximum = 0.07 (at node 10)
Accepted flit rate average= 0.051875
	minimum = 0.044 (at node 7)
	maximum = 0.063 (at node 9)
Injected packet length average = 1
Accepted packet length average = 1
Total in-flight flits = 15 (15 measured)
latency change    = 0.00441322
throughput change = 0.0698795
Class 0:
Packet latency average = 20.0513
	minimum = 7
	maximum = 59
Network latency average = 20.0513
	minimum = 7
	maximum = 59
Slowest packet = 131088
Flit latency average = 20.0885
	minimum = 7
	maximum = 59
Slowest flit = 131088
Fragmentation average = 0
	minimum = 0
	maximum = 0
Injected packet rate average = 0.0509583
	minimum = 0.0426667 (at node 13)
	maximum = 0.0606667 (at node 10)
Accepted packet rate average = 0.050875
	minimum = 0.0433333 (at node 14)
	maximum = 0.0593333 (at node 1)
Injected flit rate average = 0.0509583
	minimum = 0.0426667 (at node 13)
	maximum = 0.0606667 (at node 10)
Accepted flit rate average= 0.050875
	minimum = 0.0433333 (at node 14)
	maximum = 0.0593333 (at node 1)
Injected packet length average = 1
Accepted packet length average = 1
Total in-flight flits = 15 (15 measured)
latency change    = 0.00487929
throughput change = 0.019656
Class 0:
Packet latency average = 20.1168
	minimum = 7
	maximum = 59
Network latency average = 20.1168
	minimum = 7
	maximum = 59
Slowest packet = 131088
Flit latency average = 20.1438
	minimum = 7
	maximum = 59
Slowest flit = 131088
Fragmentation average = 0
	minimum = 0
	maximum = 0
Injected packet rate average = 0.0515625
	minimum = 0.044 (at node 12)
	maximum = 0.058 (at node 10)
Accepted packet rate average = 0.0515
	minimum = 0.045 (at node 12)
	maximum = 0.058 (at node 5)
Injected flit rate average = 0.0515625
	minimum = 0.044 (at node 12)
	maximum = 0.058 (at node 10)
Accepted flit rate average= 0.0515
	minimum = 0.045 (at node 12)
	maximum = 0.058 (at node 5)
Injected packet length average = 1
Accepted packet length average = 1
Total in-flight flits = 15 (15 measured)
latency change    = 0.00325574
throughput change = 0.0121359
Class 0:
Packet latency average = 20.1579
	minimum = 7
	maximum = 62
Network latency average = 20.1579
	minimum = 7
	maximum = 62
Slowest packet = 131848
Flit latency average = 20.1793
	minimum = 7
	maximum = 62
Slowest flit = 131848
Fragmentation average = 0
	minimum = 0
	maximum = 0
Injected packet rate average = 0.051475
	minimum = 0.0452 (at node 13)
	maximum = 0.0592 (at node 10)
Accepted packet rate average = 0.05145
	minimum = 0.046 (at node 12)
	maximum = 0.0556 (at node 5)
Injected flit rate average = 0.051475
	minimum = 0.0452 (at node 13)
	maximum = 0.0592 (at node 10)
Accepted flit rate average= 0.05145
	minimum = 0.046 (at node 12)
	maximum = 0.0556 (at node 5)
Injected packet length average = 1
Accepted packet length average = 1
Total in-flight flits = 14 (14 measured)
latency change    = 0.00204022
throughput change = 0.000971817
Draining all recorded packets ...
Draining remaining packets ...
Time taken is 4052 cycles
Class 0:
Packet latency average = 20.5013
	minimum = 7
	maximum = 57
Network latency average = 20.5013
	minimum = 7
	maximum = 57
Slowest packet = 132514
Flit latency average = 20.5013
	minimum = 7
	maximum = 57
Slowest flit = 132514
Fragmentation average = 0
	minimum = 0
	maximum = 0
Injected packet rate average = 0.049875
	minimum = 0.03 (at node 12)
	maximum = 0.072 (at node 9)
Accepted packet rate average = 0.047375
	minimum = 0.036 (at node 1)
	maximum = 0.058 (at node 3)
Injected flit rate average = 0.049875
	minimum = 0.03 (at node 12)
	maximum = 0.072 (at node 9)
Accepted flit rate average= 0.047375
	minimum = 0.036 (at node 1)
	maximum = 0.058 (at node 3)
Injected packet length average = 1
Accepted packet length average = 1
Total in-flight flits = 20 (0 measured)
latency change    = 1
throughput change = 1
Class 0:
Packet latency average = 20.7001
	minimum = 7
	maximum = 57
Network latency average = 20.7001
	minimum = 7
	maximum = 57
Slowest packet = 132514
Flit latency average = 20.7001
	minimum = 7
	maximum = 57
Slowest flit = 132514
Fragmentation average = 0
	minimum = 0
	maximum = 0
Injected packet rate average = 0.0504375
	minimum = 0.042 (at node 11)
	maximum = 0.063 (at node 9)
Accepted packet rate average = 0.0498125
	minimum = 0.036 (at node 15)
	maximum = 0.058 (at node 8)
Injected flit rate average = 0.0504375
	minimum = 0.042 (at node 11)
	maximum = 0.063 (at node 9)
Accepted flit rate average= 0.0498125
	minimum = 0.036 (at node 15)
	maximum = 0.058 (at node 8)
Injected packet length average = 1
Accepted packet length average = 1
Total in-flight flits = 10 (0 measured)
latency change    = 0.00960411
throughput change = 0.0489335
Class 0:
Packet latency average = 19.6349
	minimum = 7
	maximum = 48
Network latency average = 19.6349
	minimum = 7
	maximum = 48
Slowest packet = 133322
Flit latency average = 19.6349
	minimum = 7
	maximum = 48
Slowest flit = 133322
Fragmentation average = 0
	minimum = 0
	maximum = 0
Injected packet rate average = 0.046875
	minimum = 0.036 (at node 7)
	maximum = 0.06 (at node 2)
Accepted packet rate average = 0.045875
	minimum = 0.034 (at node 6)
	maximum = 0.058 (at node 5)
Injected flit rate average = 0.046875
	minimum = 0.036 (at node 7)
	maximum = 0.06 (at node 2)
Accepted flit rate average= 0.045875
	minimum = 0.034 (at node 6)
	maximum = 0.058 (at node 5)
Injected packet length average = 1
Accepted packet length average = 1
Total in-flight flits = 18 (0 measured)
latency change    = 0.0542529
throughput change = 0.0858311
Warmed up ...Time used is 1500 cycles
Class 0:
Packet latency average = 19.7474
	minimum = 7
	maximum = 42
Network latency average = 19.7474
	minimum = 7
	maximum = 42
Slowest packet = 133569
Flit latency average = 20.005
	minimum = 7
	maximum = 42
Slowest flit = 133569
Fragmentation average = 0
	minimum = 0
	maximum = 0
Injected packet rate average = 0.04925
	minimum = 0.034 (at node 11)
	maximum = 0.058 (at node 1)
Accepted packet rate average = 0.04975
	minimum = 0.024 (at node 8)
	maximum = 0.072 (at node 0)
Injected flit rate average = 0.04925
	minimum = 0.034 (at node 11)
	maximum = 0.058 (at node 1)
Accepted flit rate average= 0.04975
	minimum = 0.024 (at node 8)
	maximum = 0.072 (at node 0)
Injected packet length average = 1
Accepted packet length average = 1
Total in-flight flits = 14 (14 measured)
latency change    = 0.00569651
throughput change = 0.0778894
Class 0:
Packet latency average = 19.7433
	minimum = 7
	maximum = 48
Network latency average = 19.7433
	minimum = 7
	maximum = 48
Slowest packet = 134098
Flit latency average = 19.8708
	minimum = 7
	maximum = 48
Slowest flit = 134098
Fragmentation average = 0
	minimum = 0
	maximum = 0
Injected packet rate average = 0.0505
	minimum = 0.043 (at node 6)
	maximum = 0.057 (at node 14)
Accepted packet rate average = 0.0503125
	minimum = 0.039 (at node 11)
	maximum = 0.067 (at node 0)
Injected flit rate average = 0.0505
	minimum = 0.043 (at node 6)
	maximum = 0.057 (at node 14)
Accepted flit rate average= 0.0503125
	minimum = 0.039 (at node 11)
	maximum = 0.067 (at node 0)
Injected packet length average = 1
Accepted packet length average = 1
Total in-flight flits = 21 (21 measured)
latency change    = 0.000204592
throughput change = 0.0111801
Class 0:
Packet latency average = 19.9026
	minimum = 7
	maximum = 58
Network latency average = 19.9026
	minimum = 7
	maximum = 58
Slowest packet = 134640
Flit latency average = 19.9837
	minimum = 7
	maximum = 58
Slowest flit = 134640
Fragmentation average = 0
	minimum = 0
	maximum = 0
Injected packet rate average = 0.0513333
	minimum = 0.0426667 (at node 9)
	maximum = 0.062 (at node 4)
Accepted packet rate average = 0.0512083
	minimum = 0.0386667 (at node 11)
	maximum = 0.0686667 (at node 10)
Injected flit rate average = 0.0513333
	minimum = 0.0426667 (at node 9)
	maximum = 0.062 (at node 4)
Accepted flit rate average= 0.0512083
	minimum = 0.0386667 (at node 11)
	maximum = 0.0686667 (at node 10)
Injected packet length average = 1
Accepted packet length average = 1
Total in-flight flits = 21 (21 measured)
latency change    = 0.00800052
throughput change = 0.0174939
Class 0:
Packet latency average = 19.8984
	minimum = 7
	maximum = 58
Network latency average = 19.8984
	minimum = 7
	maximum = 58
Slowest packet = 134640
Flit latency average = 19.9596
	minimum = 7
	maximum = 58
Slowest flit = 134640
Fragmentation average = 0
	minimum = 0
	maximum = 0
Injected packet rate average = 0.0509688
	minimum = 0.047 (at node 9)
	maximum = 0.058 (at node 4)
Accepted packet rate average = 0.051
	minimum = 0.0395 (at node 11)
	maximum = 0.0665 (at node 10)
Injected flit rate average = 0.0509688
	minimum = 0.047 (at node 9)
	maximum = 0.058 (at node 4)
Accepted flit rate average= 0.051
	minimum = 0.0395 (at node 11)
	maximum = 0.0665 (at node 10)
Injected packet length average = 1
Accepted packet length average = 1
Total in-flight flits = 17 (17 measured)
latency change    = 0.000209604
throughput change = 0.00408497
Draining all recorded packets ...
Draining remaining packets ...
Time taken is 3571 cycles
Class 0:
Packet latency average = 21.1481
	minimum = 7
	maximum = 65
Network latency average = 21.1481
	minimum = 7
	maximum = 65
Slowest packet = 135399
Flit latency average = 21.1481
	minimum = 7
	maximum = 65
Slowest flit = 135399
Fragmentation average = 0
	minimum = 0
	maximum = 0
Injected packet rate average = 0.050375
	minimum = 0.028 (at node 10)
	maximum = 0.066 (at node 0)
Accepted packet rate average = 0.048125
	minimum = 0.026 (at node 10)
	maximum = 0.062 (at node 7)
Injected flit rate average = 0.050375
	minimum = 0.028 (at node 10)
	maximum = 0.066 (at node 0)
Accepted flit rate average= 0.048125
	minimum = 0.026 (at node 10)
	maximum = 0.062 (at node 7)
Injected packet length average = 1
Accepted packet length average = 1
Total in-flight flits = 18 (0 measured)
latency change    = 1
throughput change = 1
Class 0:
Packet latency average = 20.4646
	minimum = 7
	maximum = 65
Network latency average = 20.4646
	minimum = 7
	maximum = 65
Slowest packet = 135399
Flit latency average = 20.4646
	minimum = 7
	maximum = 65
Slowest flit = 135399
Fragmentation average = 0
	minimum = 0
	maximum = 0
Injected packet rate average = 0.0513125
	minimum = 0.038 (at node 6)
	maximum = 0.065 (at node 8)
Accepted packet rate average = 0.0503125
	minimum = 0.036 (at node 10)
	maximum = 0.062 (at node 7)
Injected flit rate average = 0.0513125
	minimum = 0.038 (at node 6)
	maximum = 0.065 (at node 8)
Accepted flit rate average= 0.0503125
	minimum = 0.036 (at node 10)
	maximum = 0.062 (at node 7)
Injected packet length average = 1
Accepted packet length average = 1
Total in-flight flits = 16 (0 measured)
latency change    = 0.033397
throughput change = 0.0434783
Class 0:
Packet latency average = 23.6878
	minimum = 7
	maximum = 99
Network latency average = 23.6549
	minimum = 7
	maximum = 99
Slowest packet = 136207
Flit latency average = 23.6549
	minimum = 7
	maximum = 99
Slowest flit = 136207
Fragmentation average = 0
	minimum = 0
	maximum = 0
Injected packet rate average = 0.0535
	minimum = 0.04 (at node 4)
	maximum = 0.072 (at node 3)
Accepted packet rate average = 0.05325
	minimum = 0.04 (at node 1)
	maximum = 0.072 (at node 7)
Injected flit rate average = 0.0535
	minimum = 0.04 (at node 4)
	maximum = 0.072 (at node 3)
Accepted flit rate average= 0.05325
	minimum = 0.04 (at node 1)
	maximum = 0.072 (at node 7)
Injected packet length average = 1
Accepted packet length average = 1
Total in-flight flits = 18 (0 measured)
latency change    = 0.13607
throughput change = 0.0551643
Warmed up ...Time used is 1500 cycles
Class 0:
Packet latency average = 20.31
	minimum = 7
	maximum = 43
Network latency average = 20.31
	minimum = 7
	maximum = 43
Slowest packet = 136626
Flit latency average = 20.3959
	minimum = 7
	maximum = 43
Slowest flit = 136626
Fragmentation average = 0
	minimum = 0
	maximum = 0
Injected packet rate average = 0.048375
	minimum = 0.036 (at node 1)
	maximum = 0.07 (at node 13)
Accepted packet rate average = 0.048625
	minimum = 0.03 (at node 0)
	maximum = 0.07 (at node 9)
Injected flit rate average = 0.048375
	minimum = 0.036 (at node 1)
	maximum = 0.07 (at node 13)
Accepted flit rate average= 0.048625
	minimum = 0.03 (at node 0)
	maximum = 0.07 (at node 9)
Injected packet length average = 1
Accepted packet length average = 1
Total in-flight flits = 16 (16 measured)
latency change    = 0.166313
throughput change = 0.0951157
Class 0:
Packet latency average = 20.2265
	minimum = 7
	maximum = 48
Network latency average = 20.2265
	minimum = 7
	maximum = 48
Slowest packet = 137031
Flit latency average = 20.2723
	minimum = 7
	maximum = 48
Slowest flit = 137031
Fragmentation average = 0
	minimum = 0
	maximum = 0
Injected packet rate average = 0.0475
	minimum = 0.033 (at node 7)
	maximum = 0.06 (at node 13)
Accepted packet rate average = 0.04775
	minimum = 0.037 (at node 0)
	maximum = 0.059 (at node 11)
Injected flit rate average = 0.0475
	minimum = 0.033 (at node 7)
	maximum = 0.06 (at node 13)
Accepted flit rate average= 0.04775
	minimum = 0.037 (at node 0)
	maximum = 0.059 (at node 11)
Injected packet length average = 1
Accepted packet length average = 1
Total in-flight flits = 14 (14 measured)
latency change    = 0.00412485
throughput change = 0.0183246
Class 0:
Packet latency average = 20.1705
	minimum = 7
	maximum = 66
Network latency average = 20.1705
	minimum = 7
	maximum = 66
Slowest packet = 137496
Flit latency average = 20.2017
	minimum = 7
	maximum = 66
Slowest flit = 137496
Fragmentation average = 0
	minimum = 0
	maximum = 0
Injected packet rate average = 0.048125
	minimum = 0.036 (at node 7)
	maximum = 0.058 (at node 11)
Accepted packet rate average = 0.0479167
	minimum = 0.0373333 (at node 12)
	maximum = 0.06 (at node 11)
Injected flit rate average = 0.048125
	minimum = 0.036 (at node 7)
	maximum = 0.058 (at node 11)
Accepted flit rate average= 0.0479167
	minimum = 0.0373333 (at node 12)
	maximum = 0.06 (at node 11)
Injected packet length average = 1
Accepted packet length average = 1
Total in-flight flits = 23 (23 measured)
latency change    = 0.00277866
throughput change = 0.00347826
Class 0:
Packet latency average = 20.3509
	minimum = 7
	maximum = 66
Network latency average = 20.3509
	minimum = 7
	maximum = 66
Slowest packet = 137496
Flit latency average = 20.3719
	minimum = 7
	maximum = 66
Slowest flit = 137496
Fragmentation average = 0
	minimum = 0
	maximum = 0
Injected packet rate average = 0.0485625
	minimum = 0.0415 (at node 7)
	maximum = 0.0545 (at node 3)
Accepted packet rate average = 0.0485625
	minimum = 0.0395 (at node 4)
	maximum = 0.0595 (at node 14)
Injected flit rate average = 0.0485625
	minimum = 0.0415 (at node 7)
	maximum = 0.0545 (at node 3)
Accepted flit rate average= 0.0485625
	minimum = 0.0395 (at node 4)
	maximum = 0.0595 (at node 14)
Injected packet length average = 1
Accepted packet length average = 1
Total in-flight flits = 18 (18 measured)
latency change    = 0.00886529
throughput change = 0.013299
Draining all recorded packets ...
Draining remaining packets ...
Time taken is 3561 cycles
====== Overall Traffic Statistics ======
====== Traffic class 0 ======
Packet latency average = 20.3686 (50 samples)
	minimum = 7 (50 samples)
	maximum = 57.8 (50 samples)
Network latency average = 20.3678 (50 samples)
	minimum = 7 (50 samples)
	maximum = 57.8 (50 samples)
Flit latency average = 20.4093 (50 samples)
	minimum = 7 (50 samples)
	maximum = 58.46 (50 samples)
Fragmentation average = 0 (50 samples)
	minimum = 0 (50 samples)
	maximum = 0 (50 samples)
Injected packet rate average = 0.0499802 (50 samples)
	minimum = 0.041026 (50 samples)
	maximum = 0.0590633 (50 samples)
Accepted packet rate average = 0.0499813 (50 samples)
	minimum = 0.04106 (50 samples)
	maximum = 0.0593447 (50 samples)
Injected flit rate average = 0.0499802 (50 samples)
	minimum = 0.041026 (50 samples)
	maximum = 0.0590633 (50 samples)
Accepted flit rate average = 0.0499813 (50 samples)
	minimum = 0.04106 (50 samples)
	maximum = 0.0593447 (50 samples)
Injected packet size average = 1 (50 samples)
Accepted packet size average = 1 (50 samples)
Hops average = 3.49299 (50 samples)
Total run time 2.07434
