BEGIN Configuration File: /tmp/noc_mesh88_dor_uniform_0.3_s123.cfg
topology = mesh;
k = 8;
n = 2;
routing_function = dor;
num_vcs = 4;
vc_buf_size = 8;
wait_for_tail_credit = 1;
priority = local_age;
sim_type = latency;
warmup_periods = 5;
sample_period = 2000;
sim_count = 1;
print_csv_results = 1;
traffic = uniform;
injection_rate = 0.3;
packet_size = 1;
seed = 123;

END Configuration File: /tmp/noc_mesh88_dor_uniform_0.3_s123.cfg
Class 0:
Packet latency average = 290.713
	minimum = 7
	maximum = 1426
Network latency average = 60.0884
	minimum = 7
	maximum = 424
Slowest packet = 1272
Flit latency average = 60.0884
	minimum = 7
	maximum = 424
Slowest flit = 3998
Fragmentation average = 0
	minimum = 0
	maximum = 0
Injected packet rate average = 0.191539
	minimum = 0.0965 (at node 15)
	maximum = 0.3155 (at node 19)
Accepted packet rate average = 0.185867
	minimum = 0.1705 (at node 58)
	maximum = 0.2045 (at node 40)
Injected flit rate average = 0.191539
	minimum = 0.0965 (at node 15)
	maximum = 0.3155 (at node 19)
Accepted flit rate average= 0.185867
	minimum = 0.1705 (at node 58)
	maximum = 0.2045 (at node 40)
Injected packet length average = 1
Accepted packet length average = 1
Total in-flight flits = 778 (0 measured)
latency change    = 1
throughput change = 1
Class 0:
Packet latency average = 547.135
	minimum = 7
	maximum = 2841
Network latency average = 60.7784
	minimum = 7
	maximum = 499
Slowest packet = 1272
Flit latency average = 60.7784
	minimum = 7
	maximum = 499
Slowest flit = 40990
Fragmentation average = 0
	minimum = 0
	maximum = 0
Injected packet rate average = 0.189086
	minimum = 0.0965 (at node 15)
	maximum = 0.31275 (at node 20)
Accepted packet rate average = 0.186125
	minimum = 0.1695 (at node 15)
	maximum = 0.202 (at node 44)
Injected flit rate average = 0.189086
	minimum = 0.0965 (at node 15)
	maximum = 0.31275 (at node 20)
Accepted flit rate average= 0.186125
	minimum = 0.1695 (at node 15)
	maximum = 0.202 (at node 44)
Injected packet length average = 1
Accepted packet length average = 1
Total in-flight flits = 808 (0 measured)
latency change    = 0.468663
throughput change = 0.00138516
Average latency for class 0 exceeded 500 cycles. Aborting simulation.
Too many sample periods needed to converge
Simulation unstable, ending ...
Total run time 1.406
