BEGIN Configuration File: /tmp/noc_mesh88_dor_uniform_0.1_s999.cfg
topology = mesh;
k = 8;
n = 2;
routing_function = dor;
num_vcs = 4;
vc_buf_size = 8;
wait_for_tail_credit = 1;
priority = local_age;
sim_type = latency;
warmup_periods = 5;
sample_period = 2000;
sim_count = 1;
print_csv_results = 1;
traffic = uniform;
injection_rate = 0.1;
packet_size = 1;
seed = 999;

END Configuration File: /tmp/noc_mesh88_dor_uniform_0.1_s999.cfg
Class 0:
Packet latency average = 33.734
	minimum = 7
	maximum = 84
Network latency average = 33.7329
	minimum = 7
	maximum = 84
Slowest packet = 8831
Flit latency average = 33.7329
	minimum = 7
	maximum = 84
Slowest flit = 8831
Fragmentation average = 0
	minimum = 0
	maximum = 0
Injected packet rate average = 0.0985625
	minimum = 0.0795 (at node 38)
	maximum = 0.112 (at node 4)
Accepted packet rate average = 0.0968906
	minimum = 0.0815 (at node 23)
	maximum = 0.118 (at node 9)
Injected flit rate average = 0.0985625
	minimum = 0.0795 (at node 38)
	maximum = 0.112 (at node 4)
Accepted flit rate average= 0.0968906
	minimum = 0.0815 (at node 23)
	maximum = 0.118 (at node 9)
Injected packet length average = 1
Accepted packet length average = 1
Total in-flight flits = 214 (0 measured)
latency change    = 1
throughput change = 1
Class 0:
Packet latency average = 33.8315
	minimum = 7
	maximum = 85
Network latency average = 33.8306
	minimum = 7
	maximum = 85
Slowest packet = 15291
Flit latency average = 33.8306
	minimum = 7
	maximum = 85
Slowest flit = 15291
Fragmentation average = 0
	minimum = 0
	maximum = 0
Injected packet rate average = 0.0995234
	minimum = 0.088 (at node 16)
	maximum = 0.112 (at node 60)
Accepted packet rate average = 0.0986719
	minimum = 0.08775 (at node 60)
	maximum = 0.11225 (at node 19)
Injected flit rate average = 0.0995234
	minimum = 0.088 (at node 16)
	maximum = 0.112 (at node 60)
Accepted flit rate average= 0.0986719
	minimum = 0.08775 (at node 60)
	maximum = 0.11225 (at node 19)
Injected packet length average = 1
Accepted packet length average = 1
Total in-flight flits = 218 (0 measured)
latency change    = 0.00288129
throughput change = 0.0180523
Class 0:
Packet latency average = 33.9614
	minimum = 7
	maximum = 84
Network latency average = 33.9608
	minimum = 7
	maximum = 84
Slowest packet = 29685
Flit latency average = 33.9608
	minimum = 7
	maximum = 84
Slowest flit = 29685
Fragmentation average = 0
	minimum = 0
	maximum = 0
Injected packet rate average = 0.100523
	minimum = 0.0885 (at node 32)
	maximum = 0.1165 (at node 53)
Accepted packet rate average = 0.100578
	minimum = 0.0845 (at node 22)
	maximum = 0.115 (at node 29)
Injected flit rate average = 0.100523
	minimum = 0.0885 (at node 32)
	maximum = 0.1165 (at node 53)
Accepted flit rate average= 0.100578
	minimum = 0.0845 (at node 22)
	maximum = 0.115 (at node 29)
Injected packet length average = 1
Accepted packet length average = 1
Total in-flight flits = 211 (0 measured)
latency change    = 0.00382559
throughput change = 0.0189529
Class 0:
Packet latency average = 33.9339
	minimum = 7
	maximum = 84
Network latency average = 33.9332
	minimum = 7
	maximum = 84
Slowest packet = 29685
Flit latency average = 33.9332
	minimum = 7
	maximum = 84
Slowest flit = 29685
Fragmentation average = 0
	minimum = 0
	maximum = 0
Injected packet rate average = 0.0999844
	minimum = 0.093 (at node 24)
	maximum = 0.10775 (at node 30)
Accepted packet rate average = 0.0999609
	minimum = 0.0895 (at node 22)
	maximum = 0.112 (at node 39)
Injected flit rate average = 0.0999844
	minimum = 0.093 (at node 24)
	maximum = 0.10775 (at node 30)
Accepted flit rate average= 0.0999609
	minimum = 0.0895 (at node 22)
	maximum = 0.112 (at node 39)
Injected packet length average = 1
Accepted packet length average = 1
Total in-flight flits = 224 (0 measured)
latency change    = 0.000810831
throughput change = 0.00617429
Class 0:
Packet latency average = 33.8556
	minimum = 7
	maximum = 85
Network latency average = 33.8543
	minimum = 7
	maximum = 85
Slowest packet = 54835
Flit latency average = 33.8543
	minimum = 7
	maximum = 85
Slowest flit = 54835
Fragmentation average = 0
	minimum = 0
	maximum = 0
Injected packet rate average = 0.0992656
	minimum = 0.086 (at node 40)
	maximum = 0.1125 (at node 33)
Accepted packet rate average = 0.0993906
	minimum = 0.0835 (at node 11)
	maximum = 0.1155 (at node 60)
Injected flit rate average = 0.0992656
	minimum = 0.086 (at node 40)
	maximum = 0.1125 (at node 33)
Accepted flit rate average= 0.0993906
	minimum = 0.0835 (at node 11)
	maximum = 0.1155 (at node 60)
Injected packet length average = 1
Accepted packet length average = 1
Total in-flight flits = 208 (0 measured)
latency change    = 0.00231205
throughput change = 0.00573809
Warmed up ...Time used is 10000 cycles
Class 0:
Packet latency average = 33.7522
	minimum = 7
	maximum = 83
Network latency average = 33.7514
	minimum = 7
	maximum = 83
Slowest packet = 71747
Flit latency average = 33.8515
	minimum = 7
	maximum = 83
Slowest flit = 71747
Fragmentation average = 0
	minimum = 0
	maximum = 0
Injected packet rate average = 0.100445
	minimum = 0.0795 (at node 34)
	maximum = 0.1135 (at node 23)
Accepted packet rate average = 0.100141
	minimum = 0.085 (at node 57)
	maximum = 0.115 (at node 28)
Injected flit rate average = 0.100445
	minimum = 0.0795 (at node 34)
	maximum = 0.1135 (at node 23)
Accepted flit rate average= 0.100141
	minimum = 0.085 (at node 57)
	maximum = 0.115 (at node 28)
Injected packet length average = 1
Accepted packet length average = 1
Total in-flight flits = 247 (247 measured)
latency change    = 0.00306421
throughput change = 0.00748947
Class 0:
Packet latency average = 33.7273
	minimum = 7
	maximum = 83
Network latency average = 33.7268
	minimum = 7
	maximum = 83
Slowest packet = 71747
Flit latency average = 33.7775
	minimum = 7
	maximum = 83
Slowest flit = 71747
Fragmentation average = 0
	minimum = 0
	maximum = 0
Injected packet rate average = 0.099457
	minimum = 0.0895 (at node 34)
	maximum = 0.10725 (at node 58)
Accepted packet rate average = 0.099418
	minimum = 0.08975 (at node 9)
	maximum = 0.111 (at node 36)
Injected flit rate average = 0.099457
	minimum = 0.0895 (at node 34)
	maximum = 0.10725 (at node 58)
Accepted flit rate average= 0.099418
	minimum = 0.08975 (at node 9)
	maximum = 0.111 (at node 36)
Injected packet length average = 1
Accepted packet length average = 1
Total in-flight flits = 218 (218 measured)
latency change    = 0.00073798
throughput change = 0.00726887
Class 0:
Packet latency average = 33.7547
	minimum = 7
	maximum = 83
Network latency average = 33.7542
	minimum = 7
	maximum = 83
Slowest packet = 71747
Flit latency average = 33.7878
	minimum = 7
	maximum = 83
Slowest flit = 71747
Fragmentation average = 0
	minimum = 0
	maximum = 0
Injected packet rate average = 0.0996563
	minimum = 0.0906667 (at node 34)
	maximum = 0.107333 (at node 28)
Accepted packet rate average = 0.0995729
	minimum = 0.0905 (at node 57)
	maximum = 0.108333 (at node 36)
Injected flit rate average = 0.0996563
	minimum = 0.0906667 (at node 34)
	maximum = 0.107333 (at node 28)
Accepted flit rate average= 0.0995729
	minimum = 0.0905 (at node 57)
	maximum = 0.108333 (at node 36)
Injected packet length average = 1
Accepted packet length average = 1
Total in-flight flits = 240 (240 measured)
latency change    = 0.000810665
throughput change = 0.00155613
Draining all recorded packets ...
Draining remaining packets ...
Time taken is 16134 cycles
====== Overall Traffic Statistics ======
====== Traffic class 0 ======
Packet latency average = 33.7957 (1 samples)
	minimum = 7 (1 samples)
	maximum = 83 (1 samples)
Network latency average = 33.7953 (1 samples)
	minimum = 7 (1 samples)
	maximum = 83 (1 samples)
Flit latency average = 33.8296 (1 samples)
	minimum = 7 (1 samples)
	maximum = 83 (1 samples)
Fragmentation average = 0 (1 samples)
	minimum = 0 (1 samples)
	maximum = 0 (1 samples)
Injected packet rate average = 0.0996563 (1 samples)
	minimum = 0.0906667 (1 samples)
	maximum = 0.107333 (1 samples)
Accepted packet rate average = 0.0995729 (1 samples)
	minimum = 0.0905 (1 samples)
	maximum = 0.108333 (1 samples)
Injected flit rate average = 0.0996563 (1 samples)
	minimum = 0.0906667 (1 samples)
	maximum = 0.107333 (1 samples)
Accepted flit rate average = 0.0995729 (1 samples)
	minimum = 0.0905 (1 samples)
	maximum = 0.108333 (1 samples)
Injected packet size average = 1 (1 samples)
Accepted packet size average = 1 (1 samples)
Hops average = 6.24762 (1 samples)
results:0,uniform,0,0.1,7,33.7957,83,7,33.7953,83,7,33.8296,83,0,0,0,0.0906667,0.0996563,0.107333,0.0905,0.0995729,0.108333,0.0906667,0.0996563,0.107333,0.0905,0.0995729,0.108333,1,1,6.24762
Total run time 2.49449
