BEGIN Configuration File: /tmp/noc_mesh88_dor_uniform_0.05_s789.cfg
topology = mesh;
k = 8;
n = 2;
routing_function = dor;
num_vcs = 4;
vc_buf_size = 8;
wait_for_tail_credit = 1;
priority = local_age;
sim_type = latency;
warmup_periods = 5;
sample_period = 2000;
sim_count = 1;
print_csv_results = 1;
traffic = uniform;
injection_rate = 0.05;
packet_size = 1;
seed = 789;

END Configuration File: /tmp/noc_mesh88_dor_uniform_0.05_s789.cfg
Class 0:
Packet latency average = 33.1759
	minimum = 7
	maximum = 77
Network latency average = 33.1759
	minimum = 7
	maximum = 77
Slowest packet = 3
Flit latency average = 33.1759
	minimum = 7
	maximum = 77
Slowest flit = 3
Fragmentation average = 0
	minimum = 0
	maximum = 0
Injected packet rate average = 0.0488828
	minimum = 0.04 (at node 37)
	maximum = 0.0595 (at node 21)
Accepted packet rate average = 0.0481094
	minimum = 0.037 (at node 52)
	maximum = 0.0615 (at node 26)
Injected flit rate average = 0.0488828
	minimum = 0.04 (at node 37)
	maximum = 0.0595 (at node 21)
Accepted flit rate average= 0.0481094
	minimum = 0.037 (at node 52)
	maximum = 0.0615 (at node 26)
Injected packet length average = 1
Accepted packet length average = 1
Total in-flight flits = 99 (0 measured)
latency change    = 1
throughput change = 1
Class 0:
Packet latency average = 33.2027
	minimum = 7
	maximum = 83
Network latency average = 33.2027
	minimum = 7
	maximum = 83
Slowest packet = 9016
Flit latency average = 33.2027
	minimum = 7
	maximum = 83
Slowest flit = 9016
Fragmentation average = 0
	minimum = 0
	maximum = 0
Injected packet rate average = 0.0497578
	minimum = 0.04025 (at node 37)
	maximum = 0.059 (at node 21)
Accepted packet rate average = 0.0493242
	minimum = 0.041 (at node 23)
	maximum = 0.0585 (at node 26)
Injected flit rate average = 0.0497578
	minimum = 0.04025 (at node 37)
	maximum = 0.059 (at node 21)
Accepted flit rate average= 0.0493242
	minimum = 0.041 (at node 23)
	maximum = 0.0585 (at node 26)
Injected packet length average = 1
Accepted packet length average = 1
Total in-flight flits = 111 (0 measured)
latency change    = 0.000806929
throughput change = 0.0246298
Class 0:
Packet latency average = 33.2204
	minimum = 7
	maximum = 78
Network latency average = 33.2203
	minimum = 7
	maximum = 78
Slowest packet = 15307
Flit latency average = 33.2203
	minimum = 7
	maximum = 78
Slowest flit = 15307
Fragmentation average = 0
	minimum = 0
	maximum = 0
Injected packet rate average = 0.0496875
	minimum = 0.0395 (at node 7)
	maximum = 0.0595 (at node 32)
Accepted packet rate average = 0.0497969
	minimum = 0.0385 (at node 27)
	maximum = 0.0625 (at node 11)
Injected flit rate average = 0.0496875
	minimum = 0.0395 (at node 7)
	maximum = 0.0595 (at node 32)
Accepted flit rate average= 0.0497969
	minimum = 0.0385 (at node 27)
	maximum = 0.0625 (at node 11)
Injected packet length average = 1
Accepted packet length average = 1
Total in-flight flits = 97 (0 measured)
latency change    = 0.000534784
throughput change = 0.00949168
Class 0:
Packet latency average = 33.1823
	minimum = 7
	maximum = 80
Network latency average = 33.1823
	minimum = 7
	maximum = 80
Slowest packet = 22804
Flit latency average = 33.1823
	minimum = 7
	maximum = 80
Slowest flit = 22804
Fragmentation average = 0
	minimum = 0
	maximum = 0
Injected packet rate average = 0.0503359
	minimum = 0.0425 (at node 43)
	maximum = 0.05675 (at node 19)
Accepted packet rate average = 0.0504297
	minimum = 0.04 (at node 4)
	maximum = 0.06 (at node 11)
Injected flit rate average = 0.0503359
	minimum = 0.0425 (at node 43)
	maximum = 0.05675 (at node 19)
Accepted flit rate average= 0.0504297
	minimum = 0.04 (at node 4)
	maximum = 0.06 (at node 11)
Injected packet length average = 1
Accepted packet length average = 1
Total in-flight flits = 87 (0 measured)
latency change    = 0.00114782
throughput change = 0.0125484
Class 0:
Packet latency average = 33.452
	minimum = 7
	maximum = 79
Network latency average = 33.452
	minimum = 7
	maximum = 79
Slowest packet = 30143
Flit latency average = 33.452
	minimum = 7
	maximum = 79
Slowest flit = 30143
Fragmentation average = 0
	minimum = 0
	maximum = 0
Injected packet rate average = 0.0508828
	minimum = 0.0425 (at node 2)
	maximum = 0.0605 (at node 22)
Accepted packet rate average = 0.0505859
	minimum = 0.0415 (at node 32)
	maximum = 0.069 (at node 56)
Injected flit rate average = 0.0508828
	minimum = 0.0425 (at node 2)
	maximum = 0.0605 (at node 22)
Accepted flit rate average= 0.0505859
	minimum = 0.0415 (at node 32)
	maximum = 0.069 (at node 56)
Injected packet length average = 1
Accepted packet length average = 1
Total in-flight flits = 125 (0 measured)
latency change    = 0.0080625
throughput change = 0.0030888
Warmed up ...Time used is 10000 cycles
Class 0:
Packet latency average = 33.4366
	minimum = 7
	maximum = 79
Network latency average = 33.4366
	minimum = 7
	maximum = 79
Slowest packet = 34280
Flit latency average = 33.5092
	minimum = 7
	maximum = 79
Slowest flit = 34280
Fragmentation average = 0
	minimum = 0
	maximum = 0
Injected packet rate average = 0.0507969
	minimum = 0.042 (at node 25)
	maximum = 0.0595 (at node 49)
Accepted packet rate average = 0.0508594
	minimum = 0.04 (at node 33)
	maximum = 0.061 (at node 59)
Injected flit rate average = 0.0507969
	minimum = 0.042 (at node 25)
	maximum = 0.0595 (at node 49)
Accepted flit rate average= 0.0508594
	minimum = 0.04 (at node 33)
	maximum = 0.061 (at node 59)
Injected packet length average = 1
Accepted packet length average = 1
Total in-flight flits = 117 (117 measured)
latency change    = 0.000460511
throughput change = 0.00537634
Class 0:
Packet latency average = 33.3343
	minimum = 7
	maximum = 79
Network latency average = 33.3343
	minimum = 7
	maximum = 79
Slowest packet = 34280
Flit latency average = 33.3719
	minimum = 7
	maximum = 79
Slowest flit = 34280
Fragmentation average = 0
	minimum = 0
	maximum = 0
Injected packet rate average = 0.0504023
	minimum = 0.04525 (at node 50)
	maximum = 0.05725 (at node 9)
Accepted packet rate average = 0.0504609
	minimum = 0.045 (at node 1)
	maximum = 0.058 (at node 20)
Injected flit rate average = 0.0504023
	minimum = 0.04525 (at node 50)
	maximum = 0.05725 (at node 9)
Accepted flit rate average= 0.0504609
	minimum = 0.045 (at node 1)
	maximum = 0.058 (at node 20)
Injected packet length average = 1
Accepted packet length average = 1
Total in-flight flits = 110 (110 measured)
latency change    = 0.00306966
throughput change = 0.00789596
Class 0:
Packet latency average = 33.373
	minimum = 7
	maximum = 79
Network latency average = 33.373
	minimum = 7
	maximum = 79
Slowest packet = 34280
Flit latency average = 33.3978
	minimum = 7
	maximum = 79
Slowest flit = 34280
Fragmentation average = 0
	minimum = 0
	maximum = 0
Injected packet rate average = 0.0503464
	minimum = 0.044 (at node 19)
	maximum = 0.0555 (at node 62)
Accepted packet rate average = 0.0503958
	minimum = 0.0446667 (at node 7)
	maximum = 0.0566667 (at node 20)
Injected flit rate average = 0.0503464
	minimum = 0.044 (at node 19)
	maximum = 0.0555 (at node 62)
Accepted flit rate average= 0.0503958
	minimum = 0.0446667 (at node 7)
	maximum = 0.0566667 (at node 20)
Injected packet length average = 1
Accepted packet length average = 1
Total in-flight flits = 106 (106 measured)
latency change    = 0.00115943
throughput change = 0.00129186
Draining all recorded packets ...
Draining remaining packets ...
Time taken is 16115 cycles
====== Overall Traffic Statistics ======
====== Traffic class 0 ======
Packet latency average = 33.397 (1 samples)
	minimum = 7 (1 samples)
	maximum = 79 (1 samples)
Network latency average = 33.397 (1 samples)
	minimum = 7 (1 samples)
	maximum = 79 (1 samples)
Flit latency average = 33.4218 (1 samples)
	minimum = 7 (1 samples)
	maximum = 79 (1 samples)
Fragmentation average = 0 (1 samples)
	minimum = 0 (1 samples)
	maximum = 0 (1 samples)
Injected packet rate average = 0.0503464 (1 samples)
	minimum = 0.044 (1 samples)
	maximum = 0.0555 (1 samples)
Accepted packet rate average = 0.0503958 (1 samples)
	minimum = 0.0446667 (1 samples)
	maximum = 0.0566667 (1 samples)
Injected flit rate average = 0.0503464 (1 samples)
	minimum = 0.044 (1 samples)
	maximum = 0.0555 (1 samples)
Accepted flit rate average = 0.0503958 (1 samples)
	minimum = 0.0446667 (1 samples)
	maximum = 0.0566667 (1 samples)
Injected packet size average = 1 (1 samples)
Accepted packet size average = 1 (1 samples)
Hops average = 6.25356 (1 samples)
results:0,uniform,0,0.05,7,33.397,79,7,33.397,79,7,33.4218,79,0,0,0,0.044,0.0503464,0.0555,0.0446667,0.0503958,0.0566667,0.044,0.0503464,0.0555,0.0446667,0.0503958,0.0566667,1,1,6.25356
Total run time 1.49742
