BEGIN Configuration File: /tmp/noc_mesh44_adaptive_xy_yx_uniform_0.3_s789.cfg
topology = mesh;
k = 4;
n = 2;
routing_function = adaptive_xy_yx;
num_vcs = 4;
vc_buf_size = 8;
wait_for_tail_credit = 1;
priority = local_age;
sim_type = latency;
warmup_periods = 5;
sample_period = 2000;
sim_count = 1;
print_csv_results = 1;
traffic = uniform;
injection_rate = 0.3;
packet_size = 1;
seed = 789;

END Configuration File: /tmp/noc_mesh44_adaptive_xy_yx_uniform_0.3_s789.cfg
Class 0:
Packet latency average = 24.9245
	minimum = 7
	maximum = 107
Network latency average = 24.1217
	minimum = 7
	maximum = 97
Slowest packet = 3200
Flit latency average = 24.1217
	minimum = 7
	maximum = 97
Slowest flit = 3200
Fragmentation average = 0
	minimum = 0
	maximum = 0
Injected packet rate average = 0.299156
	minimum = 0.2795 (at node 13)
	maximum = 0.327 (at node 8)
Accepted packet rate average = 0.295406
	minimum = 0.2785 (at node 3)
	maximum = 0.312 (at node 2)
Injected flit rate average = 0.299156
	minimum = 0.2795 (at node 13)
	maximum = 0.327 (at node 8)
Accepted flit rate average= 0.295406
	minimum = 0.2785 (at node 3)
	maximum = 0.312 (at node 2)
Injected packet length average = 1
Accepted packet length average = 1
Total in-flight flits = 121 (0 measured)
latency change    = 1
throughput change = 1
Class 0:
Packet latency average = 25.0883
	minimum = 7
	maximum = 140
Network latency average = 24.1346
	minimum = 7
	maximum = 140
Slowest packet = 9428
Flit latency average = 24.1346
	minimum = 7
	maximum = 140
Slowest flit = 9428
Fragmentation average = 0
	minimum = 0
	maximum = 0
Injected packet rate average = 0.300766
	minimum = 0.28875 (at node 9)
	maximum = 0.31075 (at node 8)
Accepted packet rate average = 0.298938
	minimum = 0.283 (at node 3)
	maximum = 0.315 (at node 14)
Injected flit rate average = 0.300766
	minimum = 0.28875 (at node 9)
	maximum = 0.31075 (at node 8)
Accepted flit rate average= 0.298938
	minimum = 0.283 (at node 3)
	maximum = 0.315 (at node 14)
Injected packet length average = 1
Accepted packet length average = 1
Total in-flight flits = 117 (0 measured)
latency change    = 0.00653153
throughput change = 0.0118127
Class 0:
Packet latency average = 25.4482
	minimum = 7
	maximum = 117
Network latency average = 24.2021
	minimum = 7
	maximum = 106
Slowest packet = 21334
Flit latency average = 24.2021
	minimum = 7
	maximum = 106
Slowest flit = 23061
Fragmentation average = 0
	minimum = 0
	maximum = 0
Injected packet rate average = 0.302125
	minimum = 0.284 (at node 4)
	maximum = 0.3135 (at node 15)
Accepted packet rate average = 0.302312
	minimum = 0.2715 (at node 15)
	maximum = 0.325 (at node 6)
Injected flit rate average = 0.302125
	minimum = 0.284 (at node 4)
	maximum = 0.3135 (at node 15)
Accepted flit rate average= 0.302312
	minimum = 0.2715 (at node 15)
	maximum = 0.325 (at node 6)
Injected packet length average = 1
Accepted packet length average = 1
Total in-flight flits = 111 (0 measured)
latency change    = 0.0141416
throughput change = 0.0111639
Class 0:
Packet latency average = 26.0509
	minimum = 7
	maximum = 148
Network latency average = 24.404
	minimum = 7
	maximum = 140
Slowest packet = 30592
Flit latency average = 24.404
	minimum = 7
	maximum = 140
Slowest flit = 32044
Fragmentation average = 0
	minimum = 0
	maximum = 0
Injected packet rate average = 0.302828
	minimum = 0.29075 (at node 1)
	maximum = 0.31175 (at node 3)
Accepted packet rate average = 0.302516
	minimum = 0.28575 (at node 9)
	maximum = 0.317 (at node 6)
Injected flit rate average = 0.302828
	minimum = 0.29075 (at node 1)
	maximum = 0.31175 (at node 3)
Accepted flit rate average= 0.302516
	minimum = 0.28575 (at node 9)
	maximum = 0.317 (at node 6)
Injected packet length average = 1
Accepted packet length average = 1
Total in-flight flits = 140 (0 measured)
latency change    = 0.0231341
throughput change = 0.000671453
Class 0:
Packet latency average = 25.9914
	minimum = 7
	maximum = 128
Network latency average = 24.519
	minimum = 7
	maximum = 115
Slowest packet = 38162
Flit latency average = 24.519
	minimum = 7
	maximum = 115
Slowest flit = 38163
Fragmentation average = 0
	minimum = 0
	maximum = 0
Injected packet rate average = 0.298406
	minimum = 0.2795 (at node 7)
	maximum = 0.314 (at node 14)
Accepted packet rate average = 0.298906
	minimum = 0.277 (at node 1)
	maximum = 0.315 (at node 0)
Injected flit rate average = 0.298406
	minimum = 0.2795 (at node 7)
	maximum = 0.314 (at node 14)
Accepted flit rate average= 0.298906
	minimum = 0.277 (at node 1)
	maximum = 0.315 (at node 0)
Injected packet length average = 1
Accepted packet length average = 1
Total in-flight flits = 124 (0 measured)
latency change    = 0.00228723
throughput change = 0.0120753
Warmed up ...Time used is 10000 cycles
Class 0:
Packet latency average = 25.8773
	minimum = 7
	maximum = 110
Network latency average = 24.356
	minimum = 7
	maximum = 109
Slowest packet = 51125
Flit latency average = 24.4304
	minimum = 7
	maximum = 109
Slowest flit = 57198
Fragmentation average = 0
	minimum = 0
	maximum = 0
Injected packet rate average = 0.303625
	minimum = 0.2915 (at node 15)
	maximum = 0.321 (at node 10)
Accepted packet rate average = 0.303375
	minimum = 0.276 (at node 9)
	maximum = 0.328 (at node 11)
Injected flit rate average = 0.303625
	minimum = 0.2915 (at node 15)
	maximum = 0.321 (at node 10)
Accepted flit rate average= 0.303375
	minimum = 0.276 (at node 9)
	maximum = 0.328 (at node 11)
Injected packet length average = 1
Accepted packet length average = 1
Total in-flight flits = 130 (130 measured)
latency change    = 0.00441049
throughput change = 0.0147301
Class 0:
Packet latency average = 25.4053
	minimum = 7
	maximum = 116
Network latency average = 24.1297
	minimum = 7
	maximum = 111
Slowest packet = 59021
Flit latency average = 24.1685
	minimum = 7
	maximum = 111
Slowest flit = 59021
Fragmentation average = 0
	minimum = 0
	maximum = 0
Injected packet rate average = 0.302078
	minimum = 0.291 (at node 15)
	maximum = 0.309 (at node 1)
Accepted packet rate average = 0.301906
	minimum = 0.28675 (at node 1)
	maximum = 0.32275 (at node 11)
Injected flit rate average = 0.302078
	minimum = 0.291 (at node 15)
	maximum = 0.309 (at node 1)
Accepted flit rate average= 0.301906
	minimum = 0.28675 (at node 1)
	maximum = 0.32275 (at node 11)
Injected packet length average = 1
Accepted packet length average = 1
Total in-flight flits = 134 (134 measured)
latency change    = 0.0185785
throughput change = 0.00486492
Class 0:
Packet latency average = 25.4835
	minimum = 7
	maximum = 126
Network latency average = 24.2057
	minimum = 7
	maximum = 121
Slowest packet = 72132
Flit latency average = 24.2312
	minimum = 7
	maximum = 121
Slowest flit = 72132
Fragmentation average = 0
	minimum = 0
	maximum = 0
Injected packet rate average = 0.301844
	minimum = 0.291167 (at node 15)
	maximum = 0.31 (at node 1)
Accepted packet rate average = 0.301865
	minimum = 0.29 (at node 9)
	maximum = 0.308167 (at node 11)
Injected flit rate average = 0.301844
	minimum = 0.291167 (at node 15)
	maximum = 0.31 (at node 1)
Accepted flit rate average= 0.301865
	minimum = 0.29 (at node 9)
	maximum = 0.308167 (at node 11)
Injected packet length average = 1
Accepted packet length average = 1
Total in-flight flits = 121 (121 measured)
latency change    = 0.00306802
throughput change = 0.000138031
Draining all recorded packets ...
Draining remaining packets ...
Time taken is 16138 cycles
====== Overall Traffic Statistics ======
====== Traffic class 0 ======
Packet latency average = 25.576 (1 samples)
	minimum = 7 (1 samples)
	maximum = 126 (1 samples)
Network latency average = 24.2406 (1 samples)
	minimum = 7 (1 samples)
	maximum = 121 (1 samples)
Flit latency average = 24.2665 (1 samples)
	minimum = 7 (1 samples)
	maximum = 121 (1 samples)
Fragmentation average = 0 (1 samples)
	minimum = 0 (1 samples)
	maximum = 0 (1 samples)
Injected packet rate average = 0.301844 (1 samples)
	minimum = 0.291167 (1 samples)
	maximum = 0.31 (1 samples)
Accepted packet rate average = 0.301865 (1 samples)
	minimum = 0.29 (1 samples)
	maximum = 0.308167 (1 samples)
Injected flit rate average = 0.301844 (1 samples)
	minimum = 0.291167 (1 samples)
	maximum = 0.31 (1 samples)
Accepted flit rate average = 0.301865 (1 samples)
	minimum = 0.29 (1 samples)
	maximum = 0.308167 (1 samples)
Injected packet size average = 1 (1 samples)
Accepted packet size average = 1 (1 samples)
Hops average = 3.48619 (1 samples)
results:0,uniform,0,0.3,7,25.576,126,7,24.2406,121,7,24.2665,121,0,0,0,0.291167,0.301844,0.31,0.29,0.301865,0.308167,0.291167,0.301844,0.31,0.29,0.301865,0.308167,1,1,3.48619
Total run time 0.613013
